/*--------------------------------*- C++ -*----------------------------------*\
| =========                 |                                                 |
| \\      /  F ield         | OpenFOAM: The Open Source CFD Toolbox           |
|  \\    /   O peration     | Version:  2.3.1                                 |
|   \\  /    A nd           | Web:      www.OpenFOAM.org                      |
|    \\/     M anipulation  |                                                 |
\*---------------------------------------------------------------------------*/
FoamFile
{
    version     2.0;
    format      ascii;
    class       extendedFeatureEdgeMesh;
    location    "constant/extendedFeatureEdgeMesh";
    object      objects.extendedFeatureEdgeMesh;
}
// * * * * * * * * * * * * * * * * * * * * * * * * * * * * * * * * * * * * * //

// points

104
(
(28 13.2 2.8)
(28.8 13.2 2.8)
(28.8 13.2 0.8)
(28 13.2 0.8)
(28.8 15.6 2.8)
(28.8 15.6 0.8)
(30.2 13.2 2.8)
(31 13.2 2.8)
(31 13.2 0.8)
(30.2 13.2 0.8)
(31 15.6 2.8)
(31 15.6 0.8)
(32.8 13.2 2.8)
(33.6 13.2 2.8)
(33.6 13.2 0.8)
(32.8 13.2 0.8)
(33.6 15.6 2.8)
(33.6 15.6 0.8)
(35 13.2 2.8)
(35.8 13.2 2.8)
(35.8 13.2 0.8)
(35 13.2 0.8)
(35.8 15.6 2.8)
(35.8 15.6 0.8)
(28.4 11.2 2.8)
(30.4 12 2.8)
(30.4 11.2 2.8)
(30.4 11.2 0.8)
(28.4 11.2 0.8)
(30.4 12 0.8)
(33.2 11.2 2.8)
(35.2 12 2.8)
(35.2 11.2 2.8)
(35.2 11.2 0.8)
(33.2 11.2 0.8)
(35.2 12 0.8)
(25 13.4 2.8)
(25.8 15.4 2.8)
(25.8 13.4 2.8)
(25.8 13.4 0.8)
(25 13.4 0.8)
(25.8 15.4 0.8)
(28.8 13.8 2.8)
(28 13.8 2.8)
(28 13.8 0.8)
(28.8 13.8 0.8)
(28.8 14.4 2.8)
(28 14.4 2.8)
(28 14.4 0.8)
(28.8 14.4 0.8)
(28.8 15 2.8)
(28 15 2.8)
(28 15 0.8)
(28.8 15 0.8)
(28 15.6 2.8)
(28 15.6 0.8)
(31 13.8 2.8)
(30.2 13.8 2.8)
(30.2 13.8 0.8)
(31 13.8 0.8)
(31 14.4 2.8)
(30.2 14.4 2.8)
(30.2 14.4 0.8)
(31 14.4 0.8)
(30.2 15 2.8)
(30.2 15.6 2.8)
(31 15 2.8)
(31 15 0.8)
(30.2 15 0.8)
(30.2 15.6 0.8)
(33.6 13.8 2.8)
(32.8 13.8 2.8)
(32.8 13.8 0.8)
(33.6 13.8 0.8)
(33.6 14.4 2.8)
(32.8 14.4 2.8)
(32.8 14.4 0.8)
(33.6 14.4 0.8)
(33.6 15 2.8)
(32.8 15 2.8)
(32.8 15 0.8)
(33.6 15 0.8)
(32.8 15.6 2.8)
(32.8 15.6 0.8)
(35.8 13.8 2.8)
(35 13.8 2.8)
(35 13.8 0.8)
(35.8 13.8 0.8)
(35.8 14.4 2.8)
(35 14.4 2.8)
(35 14.4 0.8)
(35.8 14.4 0.8)
(35 15 2.8)
(35 15.6 2.8)
(35.8 15 2.8)
(35.8 15 0.8)
(35 15 0.8)
(35 15.6 0.8)
(28.4 12 2.8)
(28.4 12 0.8)
(33.2 12 2.8)
(33.2 12 0.8)
(25 15.4 2.8)
(25 15.4 0.8)
)

// edges

187
(
(43 0)
(1 42)
(3 44)
(45 2)
(0 3)
(2 1)
(47 43)
(42 46)
(44 48)
(49 45)
(51 47)
(46 50)
(48 52)
(53 49)
(54 51)
(50 4)
(52 55)
(5 53)
(4 5)
(57 6)
(7 56)
(9 58)
(59 8)
(6 9)
(8 7)
(61 57)
(56 60)
(58 62)
(63 59)
(65 64)
(66 10)
(68 69)
(11 67)
(10 11)
(64 61)
(60 66)
(62 68)
(67 63)
(71 12)
(13 70)
(15 72)
(73 14)
(12 15)
(14 13)
(75 71)
(70 74)
(72 76)
(77 73)
(79 75)
(74 78)
(76 80)
(81 77)
(82 79)
(78 16)
(80 83)
(17 81)
(16 17)
(85 18)
(19 84)
(21 86)
(87 20)
(18 21)
(20 19)
(89 85)
(84 88)
(86 90)
(91 87)
(93 92)
(94 22)
(96 97)
(23 95)
(22 23)
(92 89)
(88 94)
(90 96)
(95 91)
(25 98)
(98 24)
(24 26)
(26 25)
(27 28)
(28 99)
(99 29)
(29 27)
(31 100)
(100 30)
(30 32)
(32 31)
(33 34)
(34 101)
(101 35)
(35 33)
(37 102)
(102 36)
(36 38)
(38 37)
(39 40)
(40 103)
(103 41)
(41 39)
(0 1)
(2 3)
(4 54)
(55 5)
(6 7)
(8 9)
(10 65)
(69 11)
(12 13)
(14 15)
(16 82)
(83 17)
(18 19)
(20 21)
(22 93)
(97 23)
(25 29)
(24 28)
(27 26)
(31 35)
(30 34)
(33 32)
(37 41)
(36 40)
(39 38)
(55 4)
(69 10)
(83 16)
(97 22)
(99 25)
(101 31)
(103 37)
(54 55)
(65 69)
(82 83)
(93 97)
(98 99)
(100 101)
(102 103)
(42 43)
(44 45)
(42 45)
(43 44)
(46 47)
(48 49)
(46 49)
(47 48)
(50 51)
(52 53)
(50 53)
(51 52)
(56 57)
(58 59)
(56 59)
(57 58)
(60 61)
(62 63)
(60 63)
(61 62)
(64 66)
(67 68)
(64 68)
(67 66)
(70 71)
(72 73)
(70 73)
(71 72)
(74 75)
(76 77)
(74 77)
(75 76)
(78 79)
(80 81)
(78 81)
(79 80)
(84 85)
(86 87)
(84 87)
(85 86)
(88 89)
(90 91)
(88 91)
(89 90)
(92 94)
(95 96)
(92 96)
(95 94)
)

// concaveStart mixedStart nonFeatureStart
42 42 104
// internalStart flatStart openStart multipleStart
132 139 139 139
// normals

228
(
(0 0 1)
(0 0 1)
(0 -1 0)
(0 -1 0)
(-1 0 0)
(0 0 1)
(1 0 0)
(0 0 -1)
(-1 0 0)
(0 0 -1)
(0 0 -1)
(0 1 0)
(0 -1 0)
(1 0 0)
(1 0 0)
(-1 0 0)
(0 -1 0)
(0 -1 0)
(0 0 1)
(0 0 1)
(0 -1 0)
(0 -1 0)
(-1 0 0)
(0 0 -1)
(0 0 -1)
(0 1 0)
(0 -1 0)
(1 0 0)
(1 0 0)
(-1 0 0)
(0 0 1)
(0 0 1)
(0 -1 0)
(0 -1 0)
(-1 0 0)
(0 0 -1)
(0 0 -1)
(0 1 0)
(0 -1 0)
(1 0 0)
(1 0 0)
(-1 0 0)
(0 0 1)
(-1 0 0)
(0 0 -1)
(1 0 0)
(0 1 0)
(0 -1 0)
(0 0 1)
(0 0 1)
(0 -1 0)
(0 -1 0)
(-1 0 0)
(0 0 1)
(1 0 0)
(0 0 -1)
(-1 0 0)
(0 0 -1)
(0 0 -1)
(0 1 0)
(0 -1 0)
(1 0 0)
(1 0 0)
(-1 0 0)
(0 -1 0)
(0 -1 0)
(0 0 1)
(0 0 1)
(0 -1 0)
(0 -1 0)
(-1 0 0)
(0 0 -1)
(0 0 -1)
(0 1 0)
(0 -1 0)
(1 0 0)
(1 0 0)
(-1 0 0)
(0 0 1)
(-1 0 0)
(0 0 1)
(0 0 1)
(0 -1 0)
(0 -1 0)
(1 0 0)
(0 0 -1)
(0 0 -1)
(0 -1 0)
(0 1 0)
(-1 0 0)
(0 0 -1)
(1 0 0)
(0 1 0)
(0 -1 0)
(-1 0 0)
(1 0 0)
(0 0 1)
(0 0 1)
(0 -1 0)
(0 -1 0)
(-1 0 0)
(0 0 1)
(1 0 0)
(0 0 -1)
(-1 0 0)
(0 0 -1)
(0 0 -1)
(0 1 0)
(0 -1 0)
(1 0 0)
(1 0 0)
(-1 0 0)
(0 -1 0)
(0 -1 0)
(0 0 1)
(0 0 1)
(0 -1 0)
(0 -1 0)
(-1 0 0)
(0 0 -1)
(0 0 -1)
(0 1 0)
(0 -1 0)
(1 0 0)
(1 0 0)
(-1 0 0)
(0 0 1)
(0 0 1)
(0 -1 0)
(0 -1 0)
(-1 0 0)
(0 0 -1)
(0 0 -1)
(0 1 0)
(0 -1 0)
(1 0 0)
(1 0 0)
(-1 0 0)
(0 0 1)
(-1 0 0)
(0 0 -1)
(1 0 0)
(0 1 0)
(0 -1 0)
(0 0 1)
(0 0 1)
(0 -1 0)
(0 -1 0)
(-1 0 0)
(0 0 1)
(1 0 0)
(0 0 -1)
(-1 0 0)
(0 0 -1)
(0 0 -1)
(0 1 0)
(0 -1 0)
(1 0 0)
(1 0 0)
(-1 0 0)
(0 -1 0)
(0 -1 0)
(0 0 1)
(0 0 1)
(0 -1 0)
(0 -1 0)
(-1 0 0)
(0 0 -1)
(0 0 -1)
(0 1 0)
(0 -1 0)
(1 0 0)
(1 0 0)
(-1 0 0)
(0 0 1)
(-1 0 0)
(0 0 1)
(0 0 1)
(0 -1 0)
(0 -1 0)
(1 0 0)
(0 0 -1)
(0 0 -1)
(0 -1 0)
(0 1 0)
(-1 0 0)
(0 0 -1)
(1 0 0)
(0 1 0)
(0 -1 0)
(-1 0 0)
(1 0 0)
(0 0 1)
(0 -1 0)
(-1 0 0)
(0 0 1)
(0 -1 0)
(1 0 0)
(0 0 -1)
(0 -1 0)
(-1 0 0)
(0 0 -1)
(0 1 0)
(1 0 0)
(0 0 1)
(0 -1 0)
(-1 0 0)
(0 0 1)
(0 -1 0)
(1 0 0)
(0 0 -1)
(0 -1 0)
(-1 0 0)
(0 0 -1)
(0 1 0)
(1 0 0)
(0 0 1)
(0 -1 0)
(-1 0 0)
(0 0 1)
(0 -1 0)
(1 0 0)
(0 0 -1)
(0 -1 0)
(-1 0 0)
(0 0 -1)
(0 1 0)
(1 0 0)
)

// normal volume types

228
(
0
0
0
0
0
0
0
0
0
0
0
0
0
0
0
0
0
0
0
0
0
0
0
0
0
0
0
0
0
0
0
0
0
0
0
0
0
0
0
0
0
0
0
0
0
0
0
0
0
0
0
0
0
0
0
0
0
0
0
0
0
0
0
0
0
0
0
0
0
0
0
0
0
0
0
0
0
0
0
0
0
0
0
0
0
0
0
0
0
0
0
0
0
0
0
0
0
0
0
0
0
0
0
0
0
0
0
0
0
0
0
0
0
0
0
0
0
0
0
0
0
0
0
0
0
0
0
0
0
0
0
0
0
0
0
0
0
0
0
0
0
0
0
0
0
0
0
0
0
0
0
0
0
0
0
0
0
0
0
0
0
0
0
0
0
0
0
0
0
0
0
0
0
0
0
0
0
0
0
0
0
0
0
0
0
0
0
0
0
0
0
0
0
0
0
0
0
0
0
0
0
0
0
0
0
0
0
0
0
0
0
0
0
0
0
0
0
0
0
0
0
0
0
0
0
0
0
0
)

// normalDirections

187
(
2(1 -1)
2(1 -1)
2(1 -1)
2(1 -1)
2(1 -1)
2(1 -1)
2(1 -1)
2(1 -1)
2(1 -1)
2(1 -1)
2(1 -1)
2(1 -1)
2(1 -1)
2(1 -1)
2(1 -1)
2(1 -1)
2(1 -1)
2(1 -1)
2(1 -1)
2(1 -1)
2(1 -1)
2(1 -1)
2(1 -1)
2(1 -1)
2(1 -1)
2(1 -1)
2(1 -1)
2(1 -1)
2(1 -1)
2(1 -1)
2(1 -1)
2(1 -1)
2(1 -1)
2(1 -1)
2(1 -1)
2(1 -1)
2(1 -1)
2(1 -1)
2(1 -1)
2(1 -1)
2(1 -1)
2(1 -1)
2(1 -1)
2(1 -1)
2(1 -1)
2(1 -1)
2(1 -1)
2(1 -1)
2(1 -1)
2(1 -1)
2(1 -1)
2(1 -1)
2(1 -1)
2(1 -1)
2(1 -1)
2(1 -1)
2(1 -1)
2(1 -1)
2(1 -1)
2(1 -1)
2(1 -1)
2(1 -1)
2(1 -1)
2(1 -1)
2(1 -1)
2(1 -1)
2(1 -1)
2(1 -1)
2(1 -1)
2(1 -1)
2(1 -1)
2(1 -1)
2(1 -1)
2(1 -1)
2(1 -1)
2(1 -1)
2{1}
2(1 -1)
2(1 -1)
2(1 -1)
2(1 -1)
2(1 -1)
2(1 -1)
2(1 -1)
2{1}
2(1 -1)
2(1 -1)
2(1 -1)
2(1 -1)
2(1 -1)
2(1 -1)
2(1 -1)
2{1}
2(1 -1)
2(1 -1)
2(1 -1)
2(1 -1)
2(1 -1)
2(1 -1)
2(1 -1)
2(1 -1)
2(1 -1)
2{1}
2(1 -1)
2(1 -1)
2(1 -1)
2{1}
2(1 -1)
2(1 -1)
2(1 -1)
2{1}
2(1 -1)
2(1 -1)
2(1 -1)
2{1}
2(1 -1)
2(1 -1)
2(1 -1)
2(1 -1)
2(1 -1)
2(1 -1)
2(1 -1)
2(1 -1)
2(1 -1)
2(1 -1)
2{1}
2{1}
2{1}
2{1}
2{1}
2{1}
2{1}
2{1}
2{1}
2{1}
2{1}
2{1}
2{1}
2{1}
4(1 -1 1 1)
4(1 -1 -1 1)
4(1 -1 1 -1)
4(1 1 1 -1)
4(1 -1 1 1)
4(1 -1 -1 1)
4(1 -1 1 -1)
4(1 1 1 -1)
4(1 -1 1 1)
4(1 -1 -1 1)
4(1 -1 1 -1)
4(1 1 1 -1)
4(1 -1 1 1)
4(1 -1 -1 1)
4(1 -1 1 -1)
4(1 1 1 -1)
4(1 -1 1 1)
4(1 -1 -1 1)
4(1 -1 1 -1)
4(1 1 1 -1)
4(1 -1 -1 -1)
4(1 -1 -1 1)
4(1 1 1 -1)
4(1 -1 1 -1)
4(1 -1 1 1)
4(1 -1 -1 1)
4(1 -1 1 -1)
4(1 1 1 -1)
4(1 -1 1 1)
4(1 -1 -1 1)
4(1 -1 1 -1)
4(1 1 1 -1)
4(1 -1 1 1)
4(1 -1 -1 1)
4(1 -1 1 -1)
4(1 1 1 -1)
4(1 -1 1 1)
4(1 -1 -1 1)
4(1 -1 1 -1)
4(1 1 1 -1)
4(1 -1 1 1)
4(1 -1 -1 1)
4(1 -1 1 -1)
4(1 1 1 -1)
4(1 -1 -1 -1)
4(1 -1 -1 1)
4(1 1 1 -1)
4(1 -1 1 -1)
)

// edgeNormals

187
(
2(0 4)
2(5 6)
2(7 8)
2(9 13)
2(16 4)
2(17 6)
2(18 15)
2(1 14)
2(10 22)
2(23 27)
2(30 29)
2(19 28)
2(24 34)
2(35 39)
2(42 41)
2(31 40)
2(36 43)
2(44 45)
2(46 45)
2(48 52)
2(53 54)
2(55 56)
2(57 61)
2(64 52)
2(65 54)
2(66 63)
2(49 62)
2(58 70)
2(71 75)
2(78 79)
2(80 84)
2(85 89)
2(90 91)
2(92 91)
2(81 77)
2(67 76)
2(72 94)
2(86 95)
2(96 100)
2(101 102)
2(103 104)
2(105 109)
2(112 100)
2(113 102)
2(114 111)
2(97 110)
2(106 118)
2(119 123)
2(126 125)
2(115 124)
2(120 130)
2(131 135)
2(138 137)
2(127 136)
2(132 139)
2(140 141)
2(142 141)
2(144 148)
2(149 150)
2(151 152)
2(153 157)
2(160 148)
2(161 150)
2(162 159)
2(145 158)
2(154 166)
2(167 171)
2(174 175)
2(176 180)
2(181 185)
2(186 187)
2(188 187)
2(177 173)
2(163 172)
2(168 190)
2(182 191)
2(192 193)
2(192 194)
2(195 196)
2(195 197)
2(198 199)
2(198 200)
2(201 202)
2(201 203)
2(204 205)
2(204 206)
2(207 208)
2(207 209)
2(210 211)
2(210 212)
2(213 214)
2(213 215)
2(216 217)
2(216 218)
2(219 220)
2(219 221)
2(222 223)
2(222 224)
2(225 226)
2(225 227)
2(5 16)
2(7 17)
2(42 47)
2(44 46)
2(53 64)
2(55 65)
2(78 93)
2(90 92)
2(101 112)
2(103 113)
2(138 143)
2(140 142)
2(149 160)
2(151 161)
2(174 189)
2(186 188)
2(202 203)
2(196 194)
2(199 197)
2(214 215)
2(208 206)
2(211 209)
2(226 227)
2(220 218)
2(223 221)
2(46 47)
2(92 93)
2(142 143)
2(188 189)
2(202 193)
2(214 205)
2(226 217)
2(47 43)
2(93 89)
2(143 139)
2(189 185)
2(193 200)
2(205 212)
2(217 224)
4(0 1 2 3)
4(9 10 11 12)
4(11 12 14 13)
4(2 3 8 15)
4(18 19 20 21)
4(23 24 25 26)
4(25 26 28 27)
4(20 21 22 29)
4(30 31 32 33)
4(35 36 37 38)
4(37 38 40 39)
4(32 33 34 41)
4(48 49 50 51)
4(57 58 59 60)
4(59 60 62 61)
4(50 51 56 63)
4(66 67 68 69)
4(71 72 73 74)
4(73 74 76 75)
4(68 69 70 77)
4(80 81 82 83)
4(85 86 87 88)
4(82 83 94 79)
4(87 88 95 84)
4(96 97 98 99)
4(105 106 107 108)
4(107 108 110 109)
4(98 99 104 111)
4(114 115 116 117)
4(119 120 121 122)
4(121 122 124 123)
4(116 117 118 125)
4(126 127 128 129)
4(131 132 133 134)
4(133 134 136 135)
4(128 129 130 137)
4(144 145 146 147)
4(153 154 155 156)
4(155 156 158 157)
4(146 147 152 159)
4(162 163 164 165)
4(167 168 169 170)
4(169 170 172 171)
4(164 165 166 173)
4(176 177 178 179)
4(181 182 183 184)
4(178 179 190 175)
4(183 184 191 180)
)

// featurePointNormals

104
(
3(0 4 16)
3(5 6 17)
3(9 13 17)
3(7 8 16)
4(31 40 46 47)
3(44 45 46)
3(48 52 64)
3(53 54 65)
3(57 61 65)
3(55 56 64)
4(80 84 92 93)
3(90 91 92)
3(96 100 112)
3(101 102 113)
3(105 109 113)
3(103 104 112)
4(127 136 142 143)
3(140 141 142)
3(144 148 160)
3(149 150 161)
3(153 157 161)
3(151 152 160)
4(176 180 188 189)
3(186 187 188)
3(192 194 196)
4(192 193 197 202)
3(195 196 197)
3(198 199 203)
3(198 199 200)
3(201 202 203)
3(204 206 208)
4(204 205 209 214)
3(207 208 209)
3(210 211 215)
3(210 211 212)
3(213 214 215)
3(216 218 220)
4(216 217 221 226)
3(219 220 221)
3(222 223 227)
3(222 223 224)
3(225 226 227)
4(5 6 2 11)
3(0 4 2)
4(7 8 11 12)
4(9 13 11 12)
4(1 14 20 25)
3(18 15 20)
4(10 22 25 26)
4(23 27 25 26)
4(19 28 32 37)
3(30 29 32)
4(24 34 37 38)
4(35 39 37 38)
3(42 41 47)
4(36 43 46 47)
4(53 54 50 59)
3(48 52 50)
4(55 56 59 60)
4(57 61 59 60)
4(49 62 68 73)
3(66 63 68)
4(58 70 73 74)
4(71 75 73 74)
3(78 79 82)
3(78 79 93)
4(80 84 82 88)
4(90 91 87 88)
4(85 89 87 88)
4(85 89 92 93)
4(101 102 98 107)
3(96 100 98)
4(103 104 107 108)
4(105 109 107 108)
4(97 110 116 121)
3(114 111 116)
4(106 118 121 122)
4(119 123 121 122)
4(115 124 128 133)
3(126 125 128)
4(120 130 133 134)
4(131 135 133 134)
3(138 137 143)
4(132 139 142 143)
4(149 150 146 155)
3(144 148 146)
4(151 152 155 156)
4(153 157 155 156)
4(145 158 164 169)
3(162 159 164)
4(154 166 169 170)
4(167 171 169 170)
3(174 175 178)
3(174 175 189)
4(176 180 178 184)
4(186 187 183 184)
4(181 185 183 184)
4(181 185 188 189)
3(192 193 194)
4(198 200 202 193)
3(204 205 206)
4(210 212 214 205)
3(216 217 218)
4(222 224 226 217)
)

// featurePointEdges

104
(
3(100 4 0)
3(100 5 1)
3(3 5 101)
3(101 4 2)
4(15 18 125 102)
3(103 18 17)
3(104 23 19)
3(104 24 20)
3(22 24 105)
3(105 23 21)
4(30 33 126 106)
3(107 33 32)
3(108 42 38)
3(108 43 39)
3(41 43 109)
3(109 42 40)
4(53 56 127 110)
3(111 56 55)
3(112 61 57)
3(112 62 58)
3(60 62 113)
3(113 61 59)
4(68 71 128 114)
3(115 71 70)
3(78 117 77)
4(79 116 129 76)
3(78 118 79)
3(83 118 80)
3(80 117 81)
3(82 116 83)
3(86 120 85)
4(87 119 130 84)
3(86 121 87)
3(91 121 88)
3(88 120 89)
3(90 119 91)
3(94 123 93)
4(95 122 131 92)
3(94 124 95)
3(99 124 96)
3(96 123 97)
3(98 122 99)
4(139 1 141 7)
4(139 0 142 6)
4(2 140 142 8)
4(140 3 141 9)
4(143 7 145 11)
4(143 6 146 10)
4(8 144 146 12)
4(144 9 145 13)
4(147 11 149 15)
4(147 10 150 14)
4(12 148 150 16)
4(148 13 149 17)
3(102 132 14)
4(103 125 132 16)
4(151 20 153 26)
4(151 19 154 25)
4(21 152 154 27)
4(152 22 153 28)
4(155 26 157 35)
4(155 25 158 34)
4(27 156 158 36)
4(156 28 157 37)
4(29 159 161 34)
3(106 133 29)
4(159 30 162 35)
4(160 32 162 37)
4(160 31 161 36)
4(107 126 133 31)
4(163 39 165 45)
4(163 38 166 44)
4(40 164 166 46)
4(164 41 165 47)
4(167 45 169 49)
4(167 44 170 48)
4(46 168 170 50)
4(168 47 169 51)
4(171 49 173 53)
4(171 48 174 52)
4(50 172 174 54)
4(172 51 173 55)
3(110 134 52)
4(111 127 134 54)
4(175 58 177 64)
4(175 57 178 63)
4(59 176 178 65)
4(176 60 177 66)
4(179 64 181 73)
4(179 63 182 72)
4(65 180 182 74)
4(180 66 181 75)
4(67 183 185 72)
3(114 135 67)
4(183 68 186 73)
4(184 70 186 75)
4(184 69 185 74)
4(115 128 135 69)
3(76 136 77)
4(82 129 136 81)
3(84 137 85)
4(90 130 137 89)
3(92 138 93)
4(98 131 138 97)
)

// regionEdges

152
(
139
0
1
2
140
3
141
142
4
5
143
6
7
8
144
9
145
146
147
10
11
12
148
13
149
150
14
15
16
17
18
132
151
19
20
21
152
22
153
154
23
24
155
25
26
27
156
28
157
158
29
159
30
160
31
32
33
133
161
162
34
35
36
37
163
38
39
40
164
41
165
166
42
43
167
44
45
46
168
47
169
170
171
48
49
50
172
51
173
174
52
53
54
55
56
134
175
57
58
59
176
60
177
178
61
62
179
63
64
65
180
66
181
182
67
183
68
184
69
70
71
135
185
186
72
73
74
75
76
77
78
79
80
81
82
83
84
85
86
87
88
89
90
91
92
93
94
95
96
97
98
99
)



// ************************************************************************* //
