/*--------------------------------*- C++ -*----------------------------------*\
| =========                 |                                                 |
| \\      /  F ield         | OpenFOAM: The Open Source CFD Toolbox           |
|  \\    /   O peration     | Version:  2.3.1                                 |
|   \\  /    A nd           | Web:      www.OpenFOAM.org                      |
|    \\/     M anipulation  |                                                 |
\*---------------------------------------------------------------------------*/
FoamFile
{
    version     2.0;
    format      ascii;
    class       polyBoundaryMesh;
    location    "constant/polyMesh";
    object      boundary;
}
// * * * * * * * * * * * * * * * * * * * * * * * * * * * * * * * * * * * * * //

12
(
    floor
    {
        type            wall;
        inGroups        1(wall);
        nFaces          205;
        startFace       18493;
    }
    ceiling
    {
        type            wall;
        inGroups        1(wall);
        nFaces          172;
        startFace       18698;
    }
    fixedWalls
    {
        type            wall;
        inGroups        1(wall);
        nFaces          2213;
        startFace       18870;
    }
    rack2796428BA49E0232CAC645AEBC8DA5C1_fixedWall
    {
        type            wall;
        inGroups        
2
(
rack2796428BA49E0232CAC645AEBC8DA5C1
wall
)
;
        nFaces          0;
        startFace       21083;
    }
    rack2796428BA49E0232CAC645AEBC8DA5C1_inlet
    {
        type            patch;
        inGroups        1(rack2796428BA49E0232CAC645AEBC8DA5C1);
        nFaces          0;
        startFace       21083;
    }
    rack2796428BA49E0232CAC645AEBC8DA5C1_outlet
    {
        type            patch;
        inGroups        1(rack2796428BA49E0232CAC645AEBC8DA5C1);
        nFaces          0;
        startFace       21083;
    }
    acu380F56D59CF2B3DF6EFF9D0E6E8D39CB_inlet
    {
        type            patch;
        inGroups        1(acu380F56D59CF2B3DF6EFF9D0E6E8D39CB);
        nFaces          0;
        startFace       21083;
    }
    acu380F56D59CF2B3DF6EFF9D0E6E8D39CB_outlet
    {
        type            patch;
        inGroups        1(acu380F56D59CF2B3DF6EFF9D0E6E8D39CB);
        nFaces          0;
        startFace       21083;
    }
    acu380F56D59CF2B3DF6EFF9D0E6E8D39CB_fixedWall
    {
        type            wall;
        inGroups        
2
(
acu380F56D59CF2B3DF6EFF9D0E6E8D39CB
wall
)
;
        nFaces          0;
        startFace       21083;
    }
    baffleFaces_master
    {
        type            wall;
        inGroups        
2
(
wall
baffleFaces
)
;
        nFaces          0;
        startFace       21083;
    }
    baffleFaces_slave
    {
        type            wall;
        inGroups        
2
(
wall
baffleFaces
)
;
        nFaces          0;
        startFace       21083;
    }
    procBoundary0to1
    {
        type            processor;
        inGroups        1(processor);
        nFaces          1536;
        startFace       21083;
        matchTolerance  0.0001;
        transform       unknown;
        myProcNo        0;
        neighbProcNo    1;
    }
)

// ************************************************************************* //
