/*--------------------------------*- C++ -*----------------------------------*\
| =========                 |                                                 |
| \\      /  F ield         | OpenFOAM: The Open Source CFD Toolbox           |
|  \\    /   O peration     | Version:  2.3.1                                 |
|   \\  /    A nd           | Web:      www.OpenFOAM.org                      |
|    \\/     M anipulation  |                                                 |
\*---------------------------------------------------------------------------*/
FoamFile
{
    version     2.0;
    format      ascii;
    class       extendedFeatureEdgeMesh;
    location    "constant/extendedFeatureEdgeMesh";
    object      objectsnew.extendedFeatureEdgeMesh;
}
// * * * * * * * * * * * * * * * * * * * * * * * * * * * * * * * * * * * * * //

// points

16
(
(33 11.4 2.8)
(33.6 12.2 2.8)
(33.6 11.4 2.8)
(33.6 11.4 0.8)
(33 11.4 0.8)
(33.6 12.2 0.8)
(32.6 9.4 2.8)
(34.6 10.2 2.8)
(34.6 9.4 2.8)
(34.6 9.4 0.8)
(32.6 9.4 0.8)
(34.6 10.2 0.8)
(33 12.2 2.8)
(33 12.2 0.8)
(32.6 10.2 2.8)
(32.6 10.2 0.8)
)

// edges

26
(
(1 12)
(0 2)
(3 4)
(13 5)
(1 5)
(0 4)
(3 2)
(12 0)
(2 1)
(4 13)
(5 3)
(7 14)
(14 6)
(6 8)
(8 7)
(9 10)
(10 15)
(15 11)
(11 9)
(7 11)
(6 10)
(9 8)
(13 1)
(15 7)
(12 13)
(14 15)
)

// concaveStart mixedStart nonFeatureStart
12 12 16
// internalStart flatStart openStart multipleStart
24 26 26 26
// normals

24
(
(0 0 1)
(0 -1 0)
(0 0 1)
(0 -1 0)
(0 0 -1)
(0 -1 0)
(0 0 -1)
(0 1 0)
(1 0 0)
(-1 0 0)
(-1 0 0)
(1 0 0)
(0 0 1)
(0 -1 0)
(-1 0 0)
(0 0 1)
(0 -1 0)
(1 0 0)
(0 0 -1)
(0 -1 0)
(-1 0 0)
(0 0 -1)
(0 1 0)
(1 0 0)
)

// normal volume types

24
(
0
0
0
0
0
0
0
0
0
0
0
0
0
0
0
0
0
0
0
0
0
0
0
0
)

// normalDirections

26
(
2{1}
2(1 -1)
2(1 -1)
2(1 -1)
2(1 -1)
2(1 -1)
2(1 -1)
2(1 -1)
2(1 -1)
2(1 -1)
2(1 -1)
2{1}
2(1 -1)
2(1 -1)
2(1 -1)
2(1 -1)
2(1 -1)
2(1 -1)
2(1 -1)
2(1 -1)
2(1 -1)
2(1 -1)
2{1}
2{1}
2{1}
2{1}
)

// edgeNormals

26
(
2(0 1)
2(2 3)
2(4 5)
2(6 7)
2(7 8)
2(3 10)
2(5 11)
2(0 10)
2(2 11)
2(4 9)
2(6 8)
2(12 13)
2(12 14)
2(15 16)
2(15 17)
2(18 19)
2(18 20)
2(21 22)
2(21 23)
2(22 23)
2(16 14)
2(19 17)
2(7 1)
2(22 13)
2(1 9)
2(13 20)
)

// featurePointNormals

16
(
3(2 3 10)
4(0 1 7 8)
3(2 3 11)
3(4 5 11)
3(4 5 10)
3(6 7 8)
3(12 14 16)
4(12 13 17 22)
3(15 16 17)
3(18 19 23)
3(18 19 20)
3(21 22 23)
3(0 1 10)
4(6 7 9 1)
3(12 13 14)
4(18 20 22 13)
)

// featurePointEdges

16
(
3(1 5 7)
4(8 4 22 0)
3(1 6 8)
3(10 6 2)
3(2 5 9)
3(3 4 10)
3(13 20 12)
4(14 19 23 11)
3(13 21 14)
3(18 21 15)
3(15 20 16)
3(17 19 18)
3(0 24 7)
4(3 22 24 9)
3(11 25 12)
4(17 23 25 16)
)

// regionEdges
8(0 1 2 3 4 24 5 6)


// ************************************************************************* //
