/*--------------------------------*- C++ -*----------------------------------*\
| =========                 |                                                 |
| \\      /  F ield         | OpenFOAM: The Open Source CFD Toolbox           |
|  \\    /   O peration     | Version:  2.3.1                                 |
|   \\  /    A nd           | Web:      www.OpenFOAM.org                      |
|    \\/     M anipulation  |                                                 |
\*---------------------------------------------------------------------------*/
FoamFile
{
    version     2.0;
    format      ascii;
    class       extendedFeatureEdgeMesh;
    location    "constant/extendedFeatureEdgeMesh";
    object      acuexhaustarea.extendedFeatureEdgeMesh;
}
// * * * * * * * * * * * * * * * * * * * * * * * * * * * * * * * * * * * * * //

// points

16
(
(49.9 27.7 0.8)
(50 27.7 0.8)
(50 27.25 0.8)
(49.9 27.25 0.8)
(49.9 26.9 0.8)
(50 26.9 0.8)
(50 26.45 0.8)
(49.9 26.45 0.8)
(59.8 27.7 0.8)
(59.9 27.7 0.8)
(59.9 27.25 0.8)
(59.8 27.25 0.8)
(59.8 26.9 0.8)
(59.9 26.9 0.8)
(59.9 26.45 0.8)
(59.8 26.45 0.8)
)

// edges

16
(
(0 1)
(1 2)
(2 3)
(3 0)
(4 5)
(5 6)
(6 7)
(7 4)
(8 9)
(9 10)
(10 11)
(11 8)
(12 13)
(13 14)
(14 15)
(15 12)
)

// concaveStart mixedStart nonFeatureStart
0 0 16
// internalStart flatStart openStart multipleStart
0 0 0 16
// normals
8{(0 0 -1)}
// normal volume types

8
(
0
0
0
0
0
0
0
0
)

// normalDirections

16
(
1(1)
1(1)
1(1)
1(1)
1(1)
1(1)
1(1)
1(1)
1(1)
1(1)
1(1)
1(1)
1(1)
1(1)
1(1)
1(1)
)

// edgeNormals

16
(
1(0)
1(0)
1(1)
1(1)
1(2)
1(2)
1(3)
1(3)
1(4)
1(4)
1(5)
1(5)
1(6)
1(6)
1(7)
1(7)
)

// featurePointNormals

16
(
1(0)
1(0)
1(0)
1(1)
1(2)
1(2)
1(2)
1(3)
1(4)
1(4)
1(4)
1(5)
1(6)
1(6)
1(6)
1(7)
)

// featurePointEdges

16
(
2(0 3)
2(0 1)
2(1 2)
2(2 3)
2(4 7)
2(4 5)
2(5 6)
2(6 7)
2(8 11)
2(8 9)
2(9 10)
2(10 11)
2(12 15)
2(12 13)
2(13 14)
2(14 15)
)

// regionEdges

16
(
0
1
2
3
4
5
6
7
8
9
10
11
12
13
14
15
)



// ************************************************************************* //
