/*--------------------------------*- C++ -*----------------------------------*\
| =========                 |                                                 |
| \\      /  F ield         | OpenFOAM: The Open Source CFD Toolbox           |
|  \\    /   O peration     | Version:  2.3.1                                 |
|   \\  /    A nd           | Web:      www.OpenFOAM.org                      |
|    \\/     M anipulation  |                                                 |
\*---------------------------------------------------------------------------*/
FoamFile
{
    version     2.0;
    format      ascii;
    class       extendedFeatureEdgeMesh;
    location    "constant/extendedFeatureEdgeMesh";
    object      objectsnew.extendedFeatureEdgeMesh;
}
// * * * * * * * * * * * * * * * * * * * * * * * * * * * * * * * * * * * * * //

// points

48
(
(49.4 25.8 2.6)
(50.2 28.2 2.6)
(50.2 25.8 2.6)
(59.6 25.8 2.6)
(60.4 28.2 2.6)
(60.4 25.8 2.6)
(49.4 28.2 2.6)
(49.6 27.7 0.8)
(49.7 27.7 0.8)
(49.7 27.25 0.8)
(49.6 27.25 0.8)
(49.6 26.9 0.8)
(49.7 26.9 0.8)
(49.7 26.45 0.8)
(49.6 26.45 0.8)
(49.4 28.2 0.8)
(50.2 28.2 0.8)
(50.2 27.7 0.8)
(49.4 27.7 0.8)
(49.4 26.45 0.8)
(50.2 26.45 0.8)
(50.2 25.8 0.8)
(49.4 25.8 0.8)
(49.4 27.25 0.8)
(50.2 27.25 0.8)
(50.2 26.9 0.8)
(49.4 26.9 0.8)
(59.6 28.2 2.6)
(60.1 27.7 0.8)
(60.2 27.7 0.8)
(60.2 27.25 0.8)
(60.1 27.25 0.8)
(60.1 26.9 0.8)
(60.2 26.9 0.8)
(60.2 26.45 0.8)
(60.1 26.45 0.8)
(59.6 28.2 0.8)
(60.4 28.2 0.8)
(60.4 27.7 0.8)
(59.6 27.7 0.8)
(59.6 26.45 0.8)
(60.4 26.45 0.8)
(60.4 25.8 0.8)
(59.6 25.8 0.8)
(59.6 27.25 0.8)
(60.4 27.25 0.8)
(60.4 26.9 0.8)
(59.6 26.9 0.8)
)

// edges

86
(
(1 6)
(6 0)
(0 2)
(2 1)
(4 27)
(27 3)
(3 5)
(5 4)
(15 16)
(21 22)
(1 16)
(0 22)
(21 2)
(36 37)
(42 43)
(4 37)
(3 43)
(42 5)
(15 1)
(36 4)
(6 15)
(27 36)
(8 9)
(10 7)
(12 13)
(14 11)
(29 30)
(31 28)
(33 34)
(35 32)
(7 8)
(9 10)
(11 12)
(13 14)
(16 17)
(17 18)
(18 15)
(19 20)
(20 21)
(22 19)
(23 24)
(24 25)
(25 26)
(26 23)
(18 7)
(10 23)
(23 18)
(26 11)
(14 19)
(19 26)
(8 17)
(17 24)
(24 9)
(12 25)
(25 20)
(20 13)
(21 16)
(15 22)
(28 29)
(30 31)
(32 33)
(34 35)
(37 38)
(38 39)
(39 36)
(40 41)
(41 42)
(43 40)
(44 45)
(45 46)
(46 47)
(47 44)
(39 28)
(31 44)
(44 39)
(47 32)
(35 40)
(40 47)
(29 38)
(38 45)
(45 30)
(33 46)
(46 41)
(41 34)
(42 37)
(36 43)
)

// concaveStart mixedStart nonFeatureStart
6 6 48
// internalStart flatStart openStart multipleStart
20 22 30 86
// normals

56
(
(0 0 1)
(0 -1 0)
(-1 0 0)
(0 0 1)
(0 -1 0)
(1 0 0)
(0 0 -1)
(0 0 -1)
(0 0 -1)
(0 0 -1)
(0 0 -1)
(0 0 -1)
(0 0 -1)
(0 0 -1)
(0 0 1)
(0 -1 0)
(-1 0 0)
(0 0 1)
(0 -1 0)
(1 0 0)
(0 0 -1)
(0 0 -1)
(0 0 -1)
(0 0 -1)
(0 0 -1)
(0 0 -1)
(0 0 -1)
(0 0 -1)
(0 0 -1)
(0 0 -1)
(0 0 -1)
(0 0 -1)
(0 0 -1)
(0 0 -1)
(0 0 -1)
(0 0 -1)
(0 0 -1)
(0 0 -1)
(1 0 0)
(-1 0 0)
(0 0 -1)
(0 0 -1)
(0 0 -1)
(0 0 -1)
(0 0 -1)
(0 0 -1)
(0 0 -1)
(0 0 -1)
(0 0 -1)
(0 0 -1)
(1 0 0)
(-1 0 0)
(0 1 0)
(0 -1 0)
(0 1 0)
(0 -1 0)
)

// normal volume types

56
(
0
0
0
0
0
0
0
0
0
0
0
0
0
0
0
0
0
0
0
0
0
0
0
0
0
0
0
0
0
0
0
0
0
0
0
0
0
0
0
0
0
0
0
0
0
0
0
0
0
0
0
0
0
0
0
0
)

// normalDirections

86
(
2{1}
2(1 -1)
2(1 -1)
2(1 -1)
2{1}
2(1 -1)
2(1 -1)
2(1 -1)
2(1 -1)
2(1 -1)
2(1 -1)
2(1 -1)
2(1 -1)
2(1 -1)
2(1 -1)
2(1 -1)
2(1 -1)
2(1 -1)
2{1}
2{1}
2{1}
2{1}
2(1 -1)
2(1 -1)
2(1 -1)
2(1 -1)
2(1 -1)
2(1 -1)
2(1 -1)
2(1 -1)
1(1)
1(1)
1(1)
1(1)
1(1)
1(1)
1(1)
1(1)
1(1)
1(1)
1(1)
1(1)
1(1)
1(1)
1(1)
1(1)
1(1)
1(1)
1(1)
1(1)
1(1)
1(1)
1(1)
1(1)
1(1)
1(1)
1(1)
1(1)
1(1)
1(1)
1(1)
1(1)
1(1)
1(1)
1(1)
1(1)
1(1)
1(1)
1(1)
1(1)
1(1)
1(1)
1(1)
1(1)
1(1)
1(1)
1(1)
1(1)
1(1)
1(1)
1(1)
1(1)
1(1)
1(1)
1(1)
1(1)
)

// edgeNormals

86
(
2(0 1)
2(0 2)
2(3 4)
2(3 5)
2(14 15)
2(14 16)
2(17 18)
2(17 19)
2(28 52)
2(31 53)
2(52 38)
2(4 2)
2(53 5)
2(40 54)
2(43 55)
2(54 50)
2(18 16)
2(55 19)
2(52 1)
2(54 15)
2(1 39)
2(15 51)
2(6 7)
2(8 9)
2(10 11)
2(12 13)
2(20 21)
2(22 23)
2(24 25)
2(26 27)
1(6)
1(8)
1(10)
1(12)
1(28)
1(29)
1(29)
1(30)
1(30)
1(31)
1(32)
1(32)
1(33)
1(33)
1(9)
1(34)
1(34)
1(13)
1(35)
1(35)
1(36)
1(36)
1(7)
1(37)
1(37)
1(11)
1(38)
1(39)
1(20)
1(22)
1(24)
1(26)
1(40)
1(41)
1(41)
1(42)
1(42)
1(43)
1(44)
1(44)
1(45)
1(45)
1(23)
1(46)
1(46)
1(27)
1(47)
1(47)
1(48)
1(48)
1(21)
1(49)
1(49)
1(25)
1(50)
1(51)
)

// featurePointNormals

48
(
3(0 2 4)
4(0 1 5 52)
3(3 4 5)
3(14 16 18)
4(14 15 19 54)
3(17 18 19)
3(0 1 2)
1(8)
1(6)
1(6)
1(8)
1(12)
1(10)
1(10)
1(12)
4(28 52 1 39)
3(28 52 38)
1(28)
1(29)
1(30)
1(30)
3(31 53 5)
3(31 53 2)
1(32)
1(32)
1(32)
1(33)
3(14 15 16)
1(22)
1(20)
1(20)
1(22)
1(26)
1(24)
1(24)
1(26)
4(40 54 15 51)
3(40 54 50)
1(40)
1(41)
1(42)
1(42)
3(43 55 19)
3(43 55 16)
1(44)
1(44)
1(44)
1(45)
)

// featurePointEdges

48
(
3(2 11 1)
4(3 10 18 0)
3(2 12 3)
3(6 16 5)
4(7 15 19 4)
3(6 17 7)
3(0 20 1)
3(23 30 44)
3(22 30 50)
3(22 31 52)
3(23 31 45)
3(25 32 47)
3(24 32 53)
3(24 33 55)
3(25 33 48)
5(8 18 20 36 57)
4(8 10 34 56)
4(34 35 50 51)
4(35 36 44 46)
4(37 39 48 49)
4(37 38 54 55)
4(9 12 38 56)
4(9 11 39 57)
4(40 43 45 46)
4(40 41 51 52)
4(41 42 53 54)
4(42 43 47 49)
3(4 21 5)
3(27 58 72)
3(26 58 78)
3(26 59 80)
3(27 59 73)
3(29 60 75)
3(28 60 81)
3(28 61 83)
3(29 61 76)
5(13 19 21 64 85)
4(13 15 62 84)
4(62 63 78 79)
4(63 64 72 74)
4(65 67 76 77)
4(65 66 82 83)
4(14 17 66 84)
4(14 16 67 85)
4(68 71 73 74)
4(68 69 79 80)
4(69 70 81 82)
4(70 71 75 77)
)

// regionEdges

72
(
0
1
2
3
22
23
24
25
4
5
6
7
26
27
28
29
30
31
32
33
34
35
36
37
38
39
40
41
42
43
44
45
46
47
48
49
50
51
52
53
54
55
56
57
58
59
60
61
62
63
64
65
66
67
68
69
70
71
72
73
74
75
76
77
78
79
80
81
82
83
84
85
)



// ************************************************************************* //
