/*--------------------------------*- C++ -*----------------------------------*\
| =========                 |                                                 |
| \\      /  F ield         | OpenFOAM: The Open Source CFD Toolbox           |
|  \\    /   O peration     | Version:  2.3.1                                 |
|   \\  /    A nd           | Web:      www.OpenFOAM.org                      |
|    \\/     M anipulation  |                                                 |
\*---------------------------------------------------------------------------*/
FoamFile
{
    version     2.0;
    format      ascii;
    class       polyBoundaryMesh;
    location    "constant/polyMesh";
    object      boundary;
}
// * * * * * * * * * * * * * * * * * * * * * * * * * * * * * * * * * * * * * //

66
(
    floor
    {
        type            wall;
        inGroups        1(wall);
        nFaces          2080;
        startFace       110907;
    }
    ceiling
    {
        type            wall;
        inGroups        1(wall);
        nFaces          2080;
        startFace       112987;
    }
    fixedWalls
    {
        type            wall;
        inGroups        1(wall);
        nFaces          4074;
        startFace       115067;
    }
    rack1B4CBD4A994E6797F70F5EF1F5863DB2_fixedWall
    {
        type            wall;
        inGroups        
2
(
rack1B4CBD4A994E6797F70F5EF1F5863DB2
wall
)
;
        nFaces          64;
        startFace       119141;
    }
    rack1B4CBD4A994E6797F70F5EF1F5863DB2_inlet
    {
        type            patch;
        inGroups        1(rack1B4CBD4A994E6797F70F5EF1F5863DB2);
        nFaces          30;
        startFace       119205;
    }
    rack1B4CBD4A994E6797F70F5EF1F5863DB2_outlet
    {
        type            patch;
        inGroups        1(rack1B4CBD4A994E6797F70F5EF1F5863DB2);
        nFaces          30;
        startFace       119235;
    }
    rackFA1BFEC6E1E22133740F019445868403_fixedWall
    {
        type            wall;
        inGroups        
2
(
rackFA1BFEC6E1E22133740F019445868403
wall
)
;
        nFaces          24;
        startFace       119265;
    }
    rackFA1BFEC6E1E22133740F019445868403_inlet
    {
        type            patch;
        inGroups        1(rackFA1BFEC6E1E22133740F019445868403);
        nFaces          30;
        startFace       119289;
    }
    rackFA1BFEC6E1E22133740F019445868403_outlet
    {
        type            patch;
        inGroups        1(rackFA1BFEC6E1E22133740F019445868403);
        nFaces          30;
        startFace       119319;
    }
    rack927D2E6888FD177A981C0A7DD98F9854_fixedWall
    {
        type            wall;
        inGroups        
2
(
rack927D2E6888FD177A981C0A7DD98F9854
wall
)
;
        nFaces          24;
        startFace       119349;
    }
    rack927D2E6888FD177A981C0A7DD98F9854_inlet
    {
        type            patch;
        inGroups        1(rack927D2E6888FD177A981C0A7DD98F9854);
        nFaces          30;
        startFace       119373;
    }
    rack927D2E6888FD177A981C0A7DD98F9854_outlet
    {
        type            patch;
        inGroups        1(rack927D2E6888FD177A981C0A7DD98F9854);
        nFaces          30;
        startFace       119403;
    }
    rackC65181F2388B717A2DFA3CA4F31EBB92_fixedWall
    {
        type            wall;
        inGroups        
2
(
rackC65181F2388B717A2DFA3CA4F31EBB92
wall
)
;
        nFaces          64;
        startFace       119433;
    }
    rackC65181F2388B717A2DFA3CA4F31EBB92_inlet
    {
        type            patch;
        inGroups        1(rackC65181F2388B717A2DFA3CA4F31EBB92);
        nFaces          30;
        startFace       119497;
    }
    rackC65181F2388B717A2DFA3CA4F31EBB92_outlet
    {
        type            patch;
        inGroups        1(rackC65181F2388B717A2DFA3CA4F31EBB92);
        nFaces          30;
        startFace       119527;
    }
    rack4A95D65ACB30A998A736CBDCEE88E685_fixedWall
    {
        type            wall;
        inGroups        
2
(
rack4A95D65ACB30A998A736CBDCEE88E685
wall
)
;
        nFaces          64;
        startFace       119557;
    }
    rack4A95D65ACB30A998A736CBDCEE88E685_outlet
    {
        type            patch;
        inGroups        1(rack4A95D65ACB30A998A736CBDCEE88E685);
        nFaces          30;
        startFace       119621;
    }
    rack4A95D65ACB30A998A736CBDCEE88E685_inlet
    {
        type            patch;
        inGroups        1(rack4A95D65ACB30A998A736CBDCEE88E685);
        nFaces          30;
        startFace       119651;
    }
    rack854D7BA836DCDC8D61AD830338297BA9_fixedWall
    {
        type            wall;
        inGroups        
2
(
rack854D7BA836DCDC8D61AD830338297BA9
wall
)
;
        nFaces          24;
        startFace       119681;
    }
    rack854D7BA836DCDC8D61AD830338297BA9_outlet
    {
        type            patch;
        inGroups        1(rack854D7BA836DCDC8D61AD830338297BA9);
        nFaces          30;
        startFace       119705;
    }
    rack854D7BA836DCDC8D61AD830338297BA9_inlet
    {
        type            patch;
        inGroups        1(rack854D7BA836DCDC8D61AD830338297BA9);
        nFaces          30;
        startFace       119735;
    }
    rack0E1B92A4DE590895AB323DD8D1E9F921_fixedWall
    {
        type            wall;
        inGroups        
2
(
rack0E1B92A4DE590895AB323DD8D1E9F921
wall
)
;
        nFaces          64;
        startFace       119765;
    }
    rack0E1B92A4DE590895AB323DD8D1E9F921_outlet
    {
        type            patch;
        inGroups        1(rack0E1B92A4DE590895AB323DD8D1E9F921);
        nFaces          30;
        startFace       119829;
    }
    rack0E1B92A4DE590895AB323DD8D1E9F921_inlet
    {
        type            patch;
        inGroups        1(rack0E1B92A4DE590895AB323DD8D1E9F921);
        nFaces          30;
        startFace       119859;
    }
    rackEA7E369EEC67CD4825F99F786002F8BB_fixedWall
    {
        type            wall;
        inGroups        
2
(
rackEA7E369EEC67CD4825F99F786002F8BB
wall
)
;
        nFaces          24;
        startFace       119889;
    }
    rackEA7E369EEC67CD4825F99F786002F8BB_outlet
    {
        type            patch;
        inGroups        1(rackEA7E369EEC67CD4825F99F786002F8BB);
        nFaces          30;
        startFace       119913;
    }
    rackEA7E369EEC67CD4825F99F786002F8BB_inlet
    {
        type            patch;
        inGroups        1(rackEA7E369EEC67CD4825F99F786002F8BB);
        nFaces          30;
        startFace       119943;
    }
    rackE1B88BE09859F2B90B67530927011F46_fixedWall
    {
        type            wall;
        inGroups        
2
(
rackE1B88BE09859F2B90B67530927011F46
wall
)
;
        nFaces          64;
        startFace       119973;
    }
    rackE1B88BE09859F2B90B67530927011F46_inlet
    {
        type            patch;
        inGroups        1(rackE1B88BE09859F2B90B67530927011F46);
        nFaces          30;
        startFace       120037;
    }
    rackE1B88BE09859F2B90B67530927011F46_outlet
    {
        type            patch;
        inGroups        1(rackE1B88BE09859F2B90B67530927011F46);
        nFaces          30;
        startFace       120067;
    }
    rack6F2FB4401216FB0BE5B3E9FA249DE9D5_fixedWall
    {
        type            wall;
        inGroups        
2
(
rack6F2FB4401216FB0BE5B3E9FA249DE9D5
wall
)
;
        nFaces          24;
        startFace       120097;
    }
    rack6F2FB4401216FB0BE5B3E9FA249DE9D5_inlet
    {
        type            patch;
        inGroups        1(rack6F2FB4401216FB0BE5B3E9FA249DE9D5);
        nFaces          30;
        startFace       120121;
    }
    rack6F2FB4401216FB0BE5B3E9FA249DE9D5_outlet
    {
        type            patch;
        inGroups        1(rack6F2FB4401216FB0BE5B3E9FA249DE9D5);
        nFaces          30;
        startFace       120151;
    }
    rackCB8BB049ED5D9C7579939A35E238AE7C_fixedWall
    {
        type            wall;
        inGroups        
2
(
rackCB8BB049ED5D9C7579939A35E238AE7C
wall
)
;
        nFaces          24;
        startFace       120181;
    }
    rackCB8BB049ED5D9C7579939A35E238AE7C_inlet
    {
        type            patch;
        inGroups        1(rackCB8BB049ED5D9C7579939A35E238AE7C);
        nFaces          30;
        startFace       120205;
    }
    rackCB8BB049ED5D9C7579939A35E238AE7C_outlet
    {
        type            patch;
        inGroups        1(rackCB8BB049ED5D9C7579939A35E238AE7C);
        nFaces          30;
        startFace       120235;
    }
    rack7CE29452499711B0CDDF74AF35D57FA0_fixedWall
    {
        type            wall;
        inGroups        
2
(
rack7CE29452499711B0CDDF74AF35D57FA0
wall
)
;
        nFaces          64;
        startFace       120265;
    }
    rack7CE29452499711B0CDDF74AF35D57FA0_inlet
    {
        type            patch;
        inGroups        1(rack7CE29452499711B0CDDF74AF35D57FA0);
        nFaces          30;
        startFace       120329;
    }
    rack7CE29452499711B0CDDF74AF35D57FA0_outlet
    {
        type            patch;
        inGroups        1(rack7CE29452499711B0CDDF74AF35D57FA0);
        nFaces          30;
        startFace       120359;
    }
    rackCFEA7F02580F13637EC4158DF376E6A1_fixedWall
    {
        type            wall;
        inGroups        
2
(
rackCFEA7F02580F13637EC4158DF376E6A1
wall
)
;
        nFaces          64;
        startFace       120389;
    }
    rackCFEA7F02580F13637EC4158DF376E6A1_outlet
    {
        type            patch;
        inGroups        1(rackCFEA7F02580F13637EC4158DF376E6A1);
        nFaces          30;
        startFace       120453;
    }
    rackCFEA7F02580F13637EC4158DF376E6A1_inlet
    {
        type            patch;
        inGroups        1(rackCFEA7F02580F13637EC4158DF376E6A1);
        nFaces          30;
        startFace       120483;
    }
    rackEDC8F6013BD80A7E069B3B7DBF87465F_fixedWall
    {
        type            wall;
        inGroups        
2
(
rackEDC8F6013BD80A7E069B3B7DBF87465F
wall
)
;
        nFaces          24;
        startFace       120513;
    }
    rackEDC8F6013BD80A7E069B3B7DBF87465F_outlet
    {
        type            patch;
        inGroups        1(rackEDC8F6013BD80A7E069B3B7DBF87465F);
        nFaces          30;
        startFace       120537;
    }
    rackEDC8F6013BD80A7E069B3B7DBF87465F_inlet
    {
        type            patch;
        inGroups        1(rackEDC8F6013BD80A7E069B3B7DBF87465F);
        nFaces          30;
        startFace       120567;
    }
    rack36DD04A52BFE5C6B041452059D458836_fixedWall
    {
        type            wall;
        inGroups        
2
(
rack36DD04A52BFE5C6B041452059D458836
wall
)
;
        nFaces          64;
        startFace       120597;
    }
    rack36DD04A52BFE5C6B041452059D458836_outlet
    {
        type            patch;
        inGroups        1(rack36DD04A52BFE5C6B041452059D458836);
        nFaces          30;
        startFace       120661;
    }
    rack36DD04A52BFE5C6B041452059D458836_inlet
    {
        type            patch;
        inGroups        1(rack36DD04A52BFE5C6B041452059D458836);
        nFaces          30;
        startFace       120691;
    }
    rackD902EEF5E6F996BB25E50FDE8FD1F62B_fixedWall
    {
        type            wall;
        inGroups        
2
(
rackD902EEF5E6F996BB25E50FDE8FD1F62B
wall
)
;
        nFaces          24;
        startFace       120721;
    }
    rackD902EEF5E6F996BB25E50FDE8FD1F62B_outlet
    {
        type            patch;
        inGroups        1(rackD902EEF5E6F996BB25E50FDE8FD1F62B);
        nFaces          30;
        startFace       120745;
    }
    rackD902EEF5E6F996BB25E50FDE8FD1F62B_inlet
    {
        type            patch;
        inGroups        1(rackD902EEF5E6F996BB25E50FDE8FD1F62B);
        nFaces          30;
        startFace       120775;
    }
    acuF9CB05DA6465C302727AC2126F3ADC50_inlet
    {
        type            patch;
        inGroups        1(acuF9CB05DA6465C302727AC2126F3ADC50);
        nFaces          40;
        startFace       120805;
    }
    acuF9CB05DA6465C302727AC2126F3ADC50_outlet
    {
        type            patch;
        inGroups        1(acuF9CB05DA6465C302727AC2126F3ADC50);
        nFaces          40;
        startFace       120845;
    }
    acuF9CB05DA6465C302727AC2126F3ADC50_fixedWall
    {
        type            wall;
        inGroups        
2
(
acuF9CB05DA6465C302727AC2126F3ADC50
wall
)
;
        nFaces          280;
        startFace       120885;
    }
    acu1385ECEC5AC66642155584A8F60EB282_inlet
    {
        type            patch;
        inGroups        1(acu1385ECEC5AC66642155584A8F60EB282);
        nFaces          40;
        startFace       121165;
    }
    acu1385ECEC5AC66642155584A8F60EB282_outlet
    {
        type            patch;
        inGroups        1(acu1385ECEC5AC66642155584A8F60EB282);
        nFaces          40;
        startFace       121205;
    }
    acu1385ECEC5AC66642155584A8F60EB282_fixedWall
    {
        type            wall;
        inGroups        
2
(
acu1385ECEC5AC66642155584A8F60EB282
wall
)
;
        nFaces          280;
        startFace       121245;
    }
    acu58D3207FC902F3CCC0F4E3EA1FA1DBE2_inlet
    {
        type            patch;
        inGroups        1(acu58D3207FC902F3CCC0F4E3EA1FA1DBE2);
        nFaces          40;
        startFace       121525;
    }
    acu58D3207FC902F3CCC0F4E3EA1FA1DBE2_outlet
    {
        type            patch;
        inGroups        1(acu58D3207FC902F3CCC0F4E3EA1FA1DBE2);
        nFaces          40;
        startFace       121565;
    }
    acu58D3207FC902F3CCC0F4E3EA1FA1DBE2_fixedWall
    {
        type            wall;
        inGroups        
2
(
acu58D3207FC902F3CCC0F4E3EA1FA1DBE2
wall
)
;
        nFaces          280;
        startFace       121605;
    }
    baffleFaces_master
    {
        type            wall;
        inGroups        
2
(
wall
baffleFaces
)
;
        nFaces          3504;
        startFace       121885;
    }
    baffleFaces_slave
    {
        type            wall;
        inGroups        
2
(
wall
baffleFaces
)
;
        nFaces          3504;
        startFace       125389;
    }
    containment_cold_master
    {
        type            wall;
        inGroups        
2
(
wall
containment_cold
)
;
        nFaces          448;
        startFace       128893;
    }
    containment_cold_slave
    {
        type            wall;
        inGroups        
2
(
wall
containment_cold
)
;
        nFaces          448;
        startFace       129341;
    }
    containment_hot_master
    {
        type            wall;
        inGroups        
2
(
wall
containment_hot
)
;
        nFaces          1332;
        startFace       129789;
    }
    containment_hot_slave
    {
        type            wall;
        inGroups        
2
(
wall
containment_hot
)
;
        nFaces          1332;
        startFace       131121;
    }
)

// ************************************************************************* //
