/*--------------------------------*- C++ -*----------------------------------*\
| =========                 |                                                 |
| \\      /  F ield         | OpenFOAM: The Open Source CFD Toolbox           |
|  \\    /   O peration     | Version:  2.3.1                                 |
|   \\  /    A nd           | Web:      www.OpenFOAM.org                      |
|    \\/     M anipulation  |                                                 |
\*---------------------------------------------------------------------------*/
FoamFile
{
    version     2.0;
    format      ascii;
    class       extendedFeatureEdgeMesh;
    location    "constant/extendedFeatureEdgeMesh";
    object      plate.extendedFeatureEdgeMesh;
}
// * * * * * * * * * * * * * * * * * * * * * * * * * * * * * * * * * * * * * //

// points
8((1.1 0.5 0) (1.1 1 0) (1.1 1 1) (1 0.5 1) (1 0.5 0) (1 1 0) (1 1 1) (1.1 0.5 1))
// edges

13
(
(1 2)
(0 1)
(7 0)
(2 7)
(6 2)
(1 5)
(4 0)
(7 4)
(5 6)
(4 5)
(3 4)
(6 3)
(3 7)
)

// concaveStart mixedStart nonFeatureStart
3 4 8
// internalStart flatStart openStart multipleStart
8 13 13 13
// normals

12
(
(1 0 0)
(0 1 0)
(0 0 -1)
(1 0 0)
(0 1 0)
(0 0 -1)
(1 0 0)
(-0 1 0)
(0 -0 -1)
(1 0 0)
(0 -1 0)
(0 -0 -1)
)

// normal volume types

12
(
0
0
0
0
0
0
0
0
0
0
0
0
)

// normalDirections

13
(
2(1 -1)
2(1 -1)
2(1 -1)
2{1}
2{1}
2(1 -1)
2(1 -1)
2{1}
2{1}
2{1}
2(1 -1)
2(1 -1)
2(1 -1)
)

// edgeNormals

13
(
2(6 7)
2(6 8)
2(9 10)
2(9 11)
2(7 5)
2(1 2)
2(10 8)
2(4 10)
2(0 1)
2(0 2)
2(3 4)
2(3 5)
2(4 11)
)

// featurePointNormals

8
(
3(6 8 10)
3(6 7 8)
3(6 7 11)
3(3 4 5)
4(10 8 4 0)
3(1 2 0)
3(7 5 0)
4(9 10 11 4)
)

// featurePointEdges

8
(
3(2 6 1)
3(0 5 1)
3(3 4 0)
3(10 12 11)
4(10 7 6 9)
3(8 5 9)
3(11 4 8)
4(2 7 12 3)
)

// regionEdges

12
(
8
9
10
11
0
1
2
3
4
5
12
6
)



// ************************************************************************* //
