/*--------------------------------*- C++ -*----------------------------------*\
| =========                 |                                                 |
| \\      /  F ield         | OpenFOAM: The Open Source CFD Toolbox           |
|  \\    /   O peration     | Version:  2.3.1                                 |
|   \\  /    A nd           | Web:      www.OpenFOAM.org                      |
|    \\/     M anipulation  |                                                 |
\*---------------------------------------------------------------------------*/
FoamFile
{
    version     2.0;
    format      ascii;
    class       featureEdgeMesh;
    location    "constant/triSurface";
    object      objects.eMesh;
}
// * * * * * * * * * * * * * * * * * * * * * * * * * * * * * * * * * * * * * //


// points:

104
(
(28 13.2 2.8)
(28.8 13.2 2.8)
(28.8 13.2 0.8)
(28 13.2 0.8)
(28.8 15.6 2.8)
(28.8 15.6 0.8)
(30.2 13.2 2.8)
(31 13.2 2.8)
(31 13.2 0.8)
(30.2 13.2 0.8)
(31 15.6 2.8)
(31 15.6 0.8)
(32.8 13.2 2.8)
(33.6 13.2 2.8)
(33.6 13.2 0.8)
(32.8 13.2 0.8)
(33.6 15.6 2.8)
(33.6 15.6 0.8)
(35 13.2 2.8)
(35.8 13.2 2.8)
(35.8 13.2 0.8)
(35 13.2 0.8)
(35.8 15.6 2.8)
(35.8 15.6 0.8)
(28.4 11.2 2.8)
(30.4 12 2.8)
(30.4 11.2 2.8)
(30.4 11.2 0.8)
(28.4 11.2 0.8)
(30.4 12 0.8)
(33.2 11.2 2.8)
(35.2 12 2.8)
(35.2 11.2 2.8)
(35.2 11.2 0.8)
(33.2 11.2 0.8)
(35.2 12 0.8)
(25 13.4 2.8)
(25.8 15.4 2.8)
(25.8 13.4 2.8)
(25.8 13.4 0.8)
(25 13.4 0.8)
(25.8 15.4 0.8)
(28.8 13.8 2.8)
(28 13.8 2.8)
(28 13.8 0.8)
(28.8 13.8 0.8)
(28.8 14.4 2.8)
(28 14.4 2.8)
(28 14.4 0.8)
(28.8 14.4 0.8)
(28.8 15 2.8)
(28 15 2.8)
(28 15 0.8)
(28.8 15 0.8)
(28 15.6 2.8)
(28 15.6 0.8)
(31 13.8 2.8)
(30.2 13.8 2.8)
(30.2 13.8 0.8)
(31 13.8 0.8)
(31 14.4 2.8)
(30.2 14.4 2.8)
(30.2 14.4 0.8)
(31 14.4 0.8)
(30.2 15 2.8)
(30.2 15.6 2.8)
(31 15 2.8)
(31 15 0.8)
(30.2 15 0.8)
(30.2 15.6 0.8)
(33.6 13.8 2.8)
(32.8 13.8 2.8)
(32.8 13.8 0.8)
(33.6 13.8 0.8)
(33.6 14.4 2.8)
(32.8 14.4 2.8)
(32.8 14.4 0.8)
(33.6 14.4 0.8)
(33.6 15 2.8)
(32.8 15 2.8)
(32.8 15 0.8)
(33.6 15 0.8)
(32.8 15.6 2.8)
(32.8 15.6 0.8)
(35.8 13.8 2.8)
(35 13.8 2.8)
(35 13.8 0.8)
(35.8 13.8 0.8)
(35.8 14.4 2.8)
(35 14.4 2.8)
(35 14.4 0.8)
(35.8 14.4 0.8)
(35 15 2.8)
(35 15.6 2.8)
(35.8 15 2.8)
(35.8 15 0.8)
(35 15 0.8)
(35 15.6 0.8)
(28.4 12 2.8)
(28.4 12 0.8)
(33.2 12 2.8)
(33.2 12 0.8)
(25 15.4 2.8)
(25 15.4 0.8)
)


// edges:

187
(
(43 0)
(1 42)
(3 44)
(45 2)
(0 3)
(2 1)
(47 43)
(42 46)
(44 48)
(49 45)
(51 47)
(46 50)
(48 52)
(53 49)
(54 51)
(50 4)
(52 55)
(5 53)
(4 5)
(57 6)
(7 56)
(9 58)
(59 8)
(6 9)
(8 7)
(61 57)
(56 60)
(58 62)
(63 59)
(65 64)
(66 10)
(68 69)
(11 67)
(10 11)
(64 61)
(60 66)
(62 68)
(67 63)
(71 12)
(13 70)
(15 72)
(73 14)
(12 15)
(14 13)
(75 71)
(70 74)
(72 76)
(77 73)
(79 75)
(74 78)
(76 80)
(81 77)
(82 79)
(78 16)
(80 83)
(17 81)
(16 17)
(85 18)
(19 84)
(21 86)
(87 20)
(18 21)
(20 19)
(89 85)
(84 88)
(86 90)
(91 87)
(93 92)
(94 22)
(96 97)
(23 95)
(22 23)
(92 89)
(88 94)
(90 96)
(95 91)
(25 98)
(98 24)
(24 26)
(26 25)
(27 28)
(28 99)
(99 29)
(29 27)
(31 100)
(100 30)
(30 32)
(32 31)
(33 34)
(34 101)
(101 35)
(35 33)
(37 102)
(102 36)
(36 38)
(38 37)
(39 40)
(40 103)
(103 41)
(41 39)
(0 1)
(2 3)
(4 54)
(55 5)
(6 7)
(8 9)
(10 65)
(69 11)
(12 13)
(14 15)
(16 82)
(83 17)
(18 19)
(20 21)
(22 93)
(97 23)
(25 29)
(24 28)
(27 26)
(31 35)
(30 34)
(33 32)
(37 41)
(36 40)
(39 38)
(55 4)
(69 10)
(83 16)
(97 22)
(99 25)
(101 31)
(103 37)
(54 55)
(65 69)
(82 83)
(93 97)
(98 99)
(100 101)
(102 103)
(42 43)
(44 45)
(42 45)
(43 44)
(46 47)
(48 49)
(46 49)
(47 48)
(50 51)
(52 53)
(50 53)
(51 52)
(56 57)
(58 59)
(56 59)
(57 58)
(60 61)
(62 63)
(60 63)
(61 62)
(64 66)
(67 68)
(64 68)
(67 66)
(70 71)
(72 73)
(70 73)
(71 72)
(74 75)
(76 77)
(74 77)
(75 76)
(78 79)
(80 81)
(78 81)
(79 80)
(84 85)
(86 87)
(84 87)
(85 86)
(88 89)
(90 91)
(88 91)
(89 90)
(92 94)
(95 96)
(92 96)
(95 94)
)

// * * * * * * * * * * * * * * * * * * * * * * * * * * * * * * * * * * * * * //


// ************************************************************************* //
