/*--------------------------------*- C++ -*----------------------------------*\
| =========                 |                                                 |
| \\      /  F ield         | OpenFOAM: The Open Source CFD Toolbox           |
|  \\    /   O peration     | Version:  2.2.1                                 |
|   \\  /    A nd           | Web:      www.OpenFOAM.org                      |
|    \\/     M anipulation  |                                                 |
\*---------------------------------------------------------------------------*/
FoamFile
{
    version     2.0;
    format      ascii;
    class       dictionary;
    object      blockMeshDict;
}
// * * * * * * * * * * * * * * * * * * * * * * * * * * * * * * * * * * * * * //

convertToMeters 1;


vertices
(
    (24.20 10.40 0.00) //0
    (38.20 10.40 0.00)
    (38.20 17.80 0.00)
    (24.20 17.80 0.00)

    (24.20 10.40 0.60) //4
    (38.20 10.40 0.60) //5
    (38.20 17.80 0.60) //6
    (24.20 17.80 0.60) //7

    (24.20 10.40 3.80) //8
    (38.20 10.40 3.80)
    (38.20 17.80 3.80)
    (24.20 17.80 3.80)
);




blocks
(
   // hex (0 1 2 3 4 5 6 7) (70 37 19) simpleGrading (1 1 1)
    hex (0 1 2 3 4 5 6 7) (70 37 6) simpleGrading (1 1 1)
    hex (4 5 6 7 8 9 10 11) (70 37 19) simpleGrading (1 1 1)
);

edges
(
);

boundary
(
    floor
    {
        type wall;
        faces
        (
            (0 3 2 1)
        );
    }
    ceiling
    {
        type wall;
        faces
        (
            //(4 5 6 7)
            (8 11 10 9)
        );
    }
    fixedWalls
    {
        type wall;
        faces
        (
            /*(0 1 5 4)
            (1 2 6 5)
            (0 4 7 3)
            (3 7 6 2)*/
            (0 1 5 4)
            (4 5 9 8)
            (1 2 6 5)
            (5 6 10 9)
            (0 3 7 4)
            (4 7 11 8)
            (3 2 6 7)
            (7 6 10 11)
        );
    }
);

mergePatchPairs
(
);

// ************************************************************************* //
