/*--------------------------------*- C++ -*----------------------------------*\
| =========                 |                                                 |
| \\      /  F ield         | OpenFOAM: The Open Source CFD Toolbox           |
|  \\    /   O peration     | Version:  2.3.1                                 |
|   \\  /    A nd           | Web:      www.OpenFOAM.org                      |
|    \\/     M anipulation  |                                                 |
\*---------------------------------------------------------------------------*/
FoamFile
{
    version     2.0;
    format      ascii;
    class       extendedFeatureEdgeMesh;
    location    "constant/extendedFeatureEdgeMesh";
    object      objects.extendedFeatureEdgeMesh;
}
// * * * * * * * * * * * * * * * * * * * * * * * * * * * * * * * * * * * * * //

// points

16
(
(49.4 25.8 2.6)
(50.2 28.2 2.6)
(50.2 25.8 2.6)
(50.2 25.8 0.8)
(49.4 25.8 0.8)
(50.2 28.2 0.8)
(59.6 25.8 2.6)
(60.4 28.2 2.6)
(60.4 25.8 2.6)
(60.4 25.8 0.8)
(59.6 25.8 0.8)
(60.4 28.2 0.8)
(49.4 28.2 2.6)
(49.4 28.2 0.8)
(59.6 28.2 2.6)
(59.6 28.2 0.8)
)

// edges

26
(
(1 12)
(12 0)
(0 2)
(2 1)
(3 4)
(4 13)
(13 5)
(5 3)
(7 14)
(14 6)
(6 8)
(8 7)
(9 10)
(10 15)
(15 11)
(11 9)
(1 5)
(0 4)
(3 2)
(7 11)
(6 10)
(9 8)
(13 1)
(15 7)
(12 13)
(14 15)
)

// concaveStart mixedStart nonFeatureStart
12 12 16
// internalStart flatStart openStart multipleStart
24 26 26 26
// normals

24
(
(0 0 1)
(0 -1 0)
(-1 0 0)
(0 0 1)
(0 -1 0)
(1 0 0)
(0 0 -1)
(0 -1 0)
(-1 0 0)
(0 0 -1)
(0 1 0)
(1 0 0)
(0 0 1)
(0 -1 0)
(-1 0 0)
(0 0 1)
(0 -1 0)
(1 0 0)
(0 0 -1)
(0 -1 0)
(-1 0 0)
(0 0 -1)
(0 1 0)
(1 0 0)
)

// normal volume types

24
(
0
0
0
0
0
0
0
0
0
0
0
0
0
0
0
0
0
0
0
0
0
0
0
0
)

// normalDirections

26
(
2{1}
2(1 -1)
2(1 -1)
2(1 -1)
2(1 -1)
2(1 -1)
2(1 -1)
2(1 -1)
2{1}
2(1 -1)
2(1 -1)
2(1 -1)
2(1 -1)
2(1 -1)
2(1 -1)
2(1 -1)
2(1 -1)
2(1 -1)
2(1 -1)
2(1 -1)
2(1 -1)
2(1 -1)
2{1}
2{1}
2{1}
2{1}
)

// edgeNormals

26
(
2(0 1)
2(0 2)
2(3 4)
2(3 5)
2(6 7)
2(6 8)
2(9 10)
2(9 11)
2(12 13)
2(12 14)
2(15 16)
2(15 17)
2(18 19)
2(18 20)
2(21 22)
2(21 23)
2(10 11)
2(4 2)
2(7 5)
2(22 23)
2(16 14)
2(19 17)
2(10 1)
2(22 13)
2(1 8)
2(13 20)
)

// featurePointNormals

16
(
3(0 2 4)
4(0 1 5 10)
3(3 4 5)
3(6 7 11)
3(6 7 8)
3(9 10 11)
3(12 14 16)
4(12 13 17 22)
3(15 16 17)
3(18 19 23)
3(18 19 20)
3(21 22 23)
3(0 1 2)
4(6 8 10 1)
3(12 13 14)
4(18 20 22 13)
)

// featurePointEdges

16
(
3(2 17 1)
4(3 16 22 0)
3(2 18 3)
3(7 18 4)
3(4 17 5)
3(6 16 7)
3(10 20 9)
4(11 19 23 8)
3(10 21 11)
3(15 21 12)
3(12 20 13)
3(14 19 15)
3(0 24 1)
4(6 22 24 5)
3(8 25 9)
4(14 23 25 13)
)

// regionEdges

16
(
0
1
2
3
4
5
6
7
8
9
10
11
12
13
14
15
)



// ************************************************************************* //
