/*--------------------------------*- C++ -*----------------------------------*\
| =========                 |                                                 |
| \\      /  F ield         | OpenFOAM: The Open Source CFD Toolbox           |
|  \\    /   O peration     | Version:  2.3.1                                 |
|   \\  /    A nd           | Web:      www.OpenFOAM.org                      |
|    \\/     M anipulation  |                                                 |
\*---------------------------------------------------------------------------*/
FoamFile
{
    version         2.0;
    format          ascii;
    class           dictionary;
    location        system;
    object          probesDict;
}

// * * * * * * * * * * * * * * * * * * * * * * * * * * * * * * * * * * * * //


// Fields to be probed. runTime modifiable!
fields
(
    T 
);

// Locations to be probed. runTime modifiable!
probeLocations
(









		
		
		
		
		
		
		
		
		
		
		
				
//inlet bottom
		 (28.8 13.35 0.97) 
		 (28.8 13.5 0.97) 
		 (28.8 13.65 0.97) 

		 (28.8 13.35 1.13) 
		 (28.8 13.5 1.13) 
		 (28.8 13.65 1.13) 

//inlet mid 1
		 (28.8 13.35 1.46)  
		 (28.8 13.5 1.46) 
		 (28.8 13.65 1.46) 

		 (28.8 13.35 1.63) 
		 (28.8 13.5 1.63) 
		 (28.8 13.65 1.63) 

//inlet mid 2
		 (28.8 13.35 1.97)  
		 (28.8 13.5 1.97)  
		 (28.8 13.65 1.97)  

		 (28.8 13.35 2.13) 
		 (28.8 13.5 2.13) 
		 (28.8 13.65 2.13) 
 
//inlet top
		 (28.8 13.35 2.47)  
		 (28.8 13.5 2.47)  
		 (28.8 13.65 2.47) 

		 (28.8 13.35 2.63) 
		 (28.8 13.5 2.63) 
		 (28.8 13.65 2.63) 


//outlet bottom
		 (28.0 13.35 0.97) 
		 (28.0 13.5 0.97) 
		 (28.0 13.65 0.97) 

		 (28.0 13.35 1.13) 
		 (28.0 13.5 1.13) 
		 (28.0 13.65 1.13) 

//outlet mid 1
		 (28.0 13.35 1.46) 
		 (28.0 13.5 1.46) 
		 (28.0 13.65 1.46) 

		 (28.0 13.35 1.63) 
		 (28.0 13.5 1.63) 
		 (28.0 13.65 1.63)  

//outlet mid 2
		 (28.0 13.35 1.97) 
		 (28.0 13.5 1.97) 
		 (28.0 13.65 1.97) 

		 (28.0 13.35 2.13) 
		 (28.0 13.5 2.13) 
		 (28.0 13.65 2.13) 
 
//outlet top
		 (28.0 13.35 2.47) 
		 (28.0 13.5 2.47) 
		 (28.0 13.65 2.47) 

		 (28.0 13.35 2.63) 
		 (28.0 13.5 2.63) 
		 (28.0 13.65 2.63)









		
		
		
		
		
		
		
		
		
		
		
				
//inlet bottom
		 (28.8 13.95 0.97) 
		 (28.8 14.1 0.97) 
		 (28.8 14.25 0.97) 

		 (28.8 13.95 1.13) 
		 (28.8 14.1 1.13) 
		 (28.8 14.25 1.13) 

//inlet mid 1
		 (28.8 13.95 1.46)  
		 (28.8 14.1 1.46) 
		 (28.8 14.25 1.46) 

		 (28.8 13.95 1.63) 
		 (28.8 14.1 1.63) 
		 (28.8 14.25 1.63) 

//inlet mid 2
		 (28.8 13.95 1.97)  
		 (28.8 14.1 1.97)  
		 (28.8 14.25 1.97)  

		 (28.8 13.95 2.13) 
		 (28.8 14.1 2.13) 
		 (28.8 14.25 2.13) 
 
//inlet top
		 (28.8 13.95 2.47)  
		 (28.8 14.1 2.47)  
		 (28.8 14.25 2.47) 

		 (28.8 13.95 2.63) 
		 (28.8 14.1 2.63) 
		 (28.8 14.25 2.63) 


//outlet bottom
		 (28.0 13.95 0.97) 
		 (28.0 14.1 0.97) 
		 (28.0 14.25 0.97) 

		 (28.0 13.95 1.13) 
		 (28.0 14.1 1.13) 
		 (28.0 14.25 1.13) 

//outlet mid 1
		 (28.0 13.95 1.46) 
		 (28.0 14.1 1.46) 
		 (28.0 14.25 1.46) 

		 (28.0 13.95 1.63) 
		 (28.0 14.1 1.63) 
		 (28.0 14.25 1.63)  

//outlet mid 2
		 (28.0 13.95 1.97) 
		 (28.0 14.1 1.97) 
		 (28.0 14.25 1.97) 

		 (28.0 13.95 2.13) 
		 (28.0 14.1 2.13) 
		 (28.0 14.25 2.13) 
 
//outlet top
		 (28.0 13.95 2.47) 
		 (28.0 14.1 2.47) 
		 (28.0 14.25 2.47) 

		 (28.0 13.95 2.63) 
		 (28.0 14.1 2.63) 
		 (28.0 14.25 2.63)









		
		
		
		
		
		
		
		
		
		
		
				
//inlet bottom
		 (28.8 14.55 0.97) 
		 (28.8 14.7 0.97) 
		 (28.8 14.85 0.97) 

		 (28.8 14.55 1.13) 
		 (28.8 14.7 1.13) 
		 (28.8 14.85 1.13) 

//inlet mid 1
		 (28.8 14.55 1.46)  
		 (28.8 14.7 1.46) 
		 (28.8 14.85 1.46) 

		 (28.8 14.55 1.63) 
		 (28.8 14.7 1.63) 
		 (28.8 14.85 1.63) 

//inlet mid 2
		 (28.8 14.55 1.97)  
		 (28.8 14.7 1.97)  
		 (28.8 14.85 1.97)  

		 (28.8 14.55 2.13) 
		 (28.8 14.7 2.13) 
		 (28.8 14.85 2.13) 
 
//inlet top
		 (28.8 14.55 2.47)  
		 (28.8 14.7 2.47)  
		 (28.8 14.85 2.47) 

		 (28.8 14.55 2.63) 
		 (28.8 14.7 2.63) 
		 (28.8 14.85 2.63) 


//outlet bottom
		 (28.0 14.55 0.97) 
		 (28.0 14.7 0.97) 
		 (28.0 14.85 0.97) 

		 (28.0 14.55 1.13) 
		 (28.0 14.7 1.13) 
		 (28.0 14.85 1.13) 

//outlet mid 1
		 (28.0 14.55 1.46) 
		 (28.0 14.7 1.46) 
		 (28.0 14.85 1.46) 

		 (28.0 14.55 1.63) 
		 (28.0 14.7 1.63) 
		 (28.0 14.85 1.63)  

//outlet mid 2
		 (28.0 14.55 1.97) 
		 (28.0 14.7 1.97) 
		 (28.0 14.85 1.97) 

		 (28.0 14.55 2.13) 
		 (28.0 14.7 2.13) 
		 (28.0 14.85 2.13) 
 
//outlet top
		 (28.0 14.55 2.47) 
		 (28.0 14.7 2.47) 
		 (28.0 14.85 2.47) 

		 (28.0 14.55 2.63) 
		 (28.0 14.7 2.63) 
		 (28.0 14.85 2.63)









		
		
		
		
		
		
		
		
		
		
		
				
//inlet bottom
		 (28.8 15.15 0.97) 
		 (28.8 15.3 0.97) 
		 (28.8 15.45 0.97) 

		 (28.8 15.15 1.13) 
		 (28.8 15.3 1.13) 
		 (28.8 15.45 1.13) 

//inlet mid 1
		 (28.8 15.15 1.46)  
		 (28.8 15.3 1.46) 
		 (28.8 15.45 1.46) 

		 (28.8 15.15 1.63) 
		 (28.8 15.3 1.63) 
		 (28.8 15.45 1.63) 

//inlet mid 2
		 (28.8 15.15 1.97)  
		 (28.8 15.3 1.97)  
		 (28.8 15.45 1.97)  

		 (28.8 15.15 2.13) 
		 (28.8 15.3 2.13) 
		 (28.8 15.45 2.13) 
 
//inlet top
		 (28.8 15.15 2.47)  
		 (28.8 15.3 2.47)  
		 (28.8 15.45 2.47) 

		 (28.8 15.15 2.63) 
		 (28.8 15.3 2.63) 
		 (28.8 15.45 2.63) 


//outlet bottom
		 (28.0 15.15 0.97) 
		 (28.0 15.3 0.97) 
		 (28.0 15.45 0.97) 

		 (28.0 15.15 1.13) 
		 (28.0 15.3 1.13) 
		 (28.0 15.45 1.13) 

//outlet mid 1
		 (28.0 15.15 1.46) 
		 (28.0 15.3 1.46) 
		 (28.0 15.45 1.46) 

		 (28.0 15.15 1.63) 
		 (28.0 15.3 1.63) 
		 (28.0 15.45 1.63)  

//outlet mid 2
		 (28.0 15.15 1.97) 
		 (28.0 15.3 1.97) 
		 (28.0 15.45 1.97) 

		 (28.0 15.15 2.13) 
		 (28.0 15.3 2.13) 
		 (28.0 15.45 2.13) 
 
//outlet top
		 (28.0 15.15 2.47) 
		 (28.0 15.3 2.47) 
		 (28.0 15.45 2.47) 

		 (28.0 15.15 2.63) 
		 (28.0 15.3 2.63) 
		 (28.0 15.45 2.63)







		
		
		
		
		
		
		
		
		
		
		
				
//inlet bottom
		 ( 30.200000000000003 13.35 0.97 ) 
		 ( 30.200000000000003 13.5 0.97 ) 
		 ( 30.200000000000003 13.65 0.97 ) 

		 ( 30.200000000000003 13.35 1.13 ) 
		 ( 30.200000000000003 13.5 1.13 ) 
		 ( 30.200000000000003 13.65 1.13 ) 

//inlet mid 1
		 ( 30.200000000000003 13.35 1.46 ) 
		 ( 30.200000000000003 13.5 1.46 ) 
		 ( 30.200000000000003 13.65 1.46 ) 

		 ( 30.200000000000003 13.35 1.63 ) 
		 ( 30.200000000000003 13.5 1.63 ) 
		 ( 30.200000000000003 13.65 1.63 )  

//inlet mid 2
		 ( 30.200000000000003 13.35 1.97 ) 
		 ( 30.200000000000003 13.5 1.97 ) 
		 ( 30.200000000000003 13.65 1.97 ) 

		 ( 30.200000000000003 13.35 2.13 ) 
		 ( 30.200000000000003 13.5 2.13 ) 
		 ( 30.200000000000003 13.65 2.13 ) 
 
//inlet top
		 ( 30.200000000000003 13.35 2.47 ) 
		 ( 30.200000000000003 13.5 2.47 ) 
		 ( 30.200000000000003 13.65 2.47 ) 

		 ( 30.200000000000003 13.35 2.63 ) 
		 ( 30.200000000000003 13.5 2.63 ) 
		 ( 30.200000000000003 13.65 2.63 ) 


//outlet bottom
		 ( 31.0 13.35 0.97 ) 
		 ( 31.0 13.5 0.97 ) 
		 ( 31.0 13.65 0.97 ) 

		 ( 31.0 13.35 1.13 ) 
		 ( 31.0 13.5 1.13 ) 
		 ( 31.0 13.65 1.13 ) 

//outlet mid 1
		 ( 31.0 13.35 1.46 ) 
		 ( 31.0 13.5 1.46 ) 
		 ( 31.0 13.65 1.46 ) 

		 ( 31.0 13.35 1.63 ) 
		 ( 31.0 13.5 1.63 ) 
		 ( 31.0 13.65 1.63 )  

//outlet mid 2
		 ( 31.0 13.35 1.97 ) 
		 ( 31.0 13.5 1.97 ) 
		 ( 31.0 13.65 1.97 ) 

		 ( 31.0 13.35 2.13 ) 
		 ( 31.0 13.5 2.13 ) 
		 ( 31.0 13.65 2.13 ) 
 
//outlet top
		 ( 31.0 13.35 2.47 ) 
		 ( 31.0 13.5 2.47 ) 
		 ( 31.0 13.65 2.47 ) 

		 ( 31.0 13.35 2.63 ) 
		 ( 31.0 13.5 2.63 ) 
		 ( 31.0 13.65 2.63 )
       









		
		
		
		
		
		
		
		
		
		
		
				
//inlet bottom
		 ( 30.200000000000003 13.95 0.97 ) 
		 ( 30.200000000000003 14.1 0.97 ) 
		 ( 30.200000000000003 14.25 0.97 ) 

		 ( 30.200000000000003 13.95 1.13 ) 
		 ( 30.200000000000003 14.1 1.13 ) 
		 ( 30.200000000000003 14.25 1.13 ) 

//inlet mid 1
		 ( 30.200000000000003 13.95 1.46 ) 
		 ( 30.200000000000003 14.1 1.46 ) 
		 ( 30.200000000000003 14.25 1.46 ) 

		 ( 30.200000000000003 13.95 1.63 ) 
		 ( 30.200000000000003 14.1 1.63 ) 
		 ( 30.200000000000003 14.25 1.63 )  

//inlet mid 2
		 ( 30.200000000000003 13.95 1.97 ) 
		 ( 30.200000000000003 14.1 1.97 ) 
		 ( 30.200000000000003 14.25 1.97 ) 

		 ( 30.200000000000003 13.95 2.13 ) 
		 ( 30.200000000000003 14.1 2.13 ) 
		 ( 30.200000000000003 14.25 2.13 ) 
 
//inlet top
		 ( 30.200000000000003 13.95 2.47 ) 
		 ( 30.200000000000003 14.1 2.47 ) 
		 ( 30.200000000000003 14.25 2.47 ) 

		 ( 30.200000000000003 13.95 2.63 ) 
		 ( 30.200000000000003 14.1 2.63 ) 
		 ( 30.200000000000003 14.25 2.63 ) 


//outlet bottom
		 ( 31.0 13.95 0.97 ) 
		 ( 31.0 14.1 0.97 ) 
		 ( 31.0 14.25 0.97 ) 

		 ( 31.0 13.95 1.13 ) 
		 ( 31.0 14.1 1.13 ) 
		 ( 31.0 14.25 1.13 ) 

//outlet mid 1
		 ( 31.0 13.95 1.46 ) 
		 ( 31.0 14.1 1.46 ) 
		 ( 31.0 14.25 1.46 ) 

		 ( 31.0 13.95 1.63 ) 
		 ( 31.0 14.1 1.63 ) 
		 ( 31.0 14.25 1.63 )  

//outlet mid 2
		 ( 31.0 13.95 1.97 ) 
		 ( 31.0 14.1 1.97 ) 
		 ( 31.0 14.25 1.97 ) 

		 ( 31.0 13.95 2.13 ) 
		 ( 31.0 14.1 2.13 ) 
		 ( 31.0 14.25 2.13 ) 
 
//outlet top
		 ( 31.0 13.95 2.47 ) 
		 ( 31.0 14.1 2.47 ) 
		 ( 31.0 14.25 2.47 ) 

		 ( 31.0 13.95 2.63 ) 
		 ( 31.0 14.1 2.63 ) 
		 ( 31.0 14.25 2.63 )
       









		
		
		
		
		
		
		
		
		
		
		
				
//inlet bottom
		 ( 30.200000000000003 15.15 0.97 ) 
		 ( 30.200000000000003 15.3 0.97 ) 
		 ( 30.200000000000003 15.45 0.97 ) 

		 ( 30.200000000000003 15.15 1.13 ) 
		 ( 30.200000000000003 15.3 1.13 ) 
		 ( 30.200000000000003 15.45 1.13 ) 

//inlet mid 1
		 ( 30.200000000000003 15.15 1.46 ) 
		 ( 30.200000000000003 15.3 1.46 ) 
		 ( 30.200000000000003 15.45 1.46 ) 

		 ( 30.200000000000003 15.15 1.63 ) 
		 ( 30.200000000000003 15.3 1.63 ) 
		 ( 30.200000000000003 15.45 1.63 )  

//inlet mid 2
		 ( 30.200000000000003 15.15 1.97 ) 
		 ( 30.200000000000003 15.3 1.97 ) 
		 ( 30.200000000000003 15.45 1.97 ) 

		 ( 30.200000000000003 15.15 2.13 ) 
		 ( 30.200000000000003 15.3 2.13 ) 
		 ( 30.200000000000003 15.45 2.13 ) 
 
//inlet top
		 ( 30.200000000000003 15.15 2.47 ) 
		 ( 30.200000000000003 15.3 2.47 ) 
		 ( 30.200000000000003 15.45 2.47 ) 

		 ( 30.200000000000003 15.15 2.63 ) 
		 ( 30.200000000000003 15.3 2.63 ) 
		 ( 30.200000000000003 15.45 2.63 ) 


//outlet bottom
		 ( 31.0 15.15 0.97 ) 
		 ( 31.0 15.3 0.97 ) 
		 ( 31.0 15.45 0.97 ) 

		 ( 31.0 15.15 1.13 ) 
		 ( 31.0 15.3 1.13 ) 
		 ( 31.0 15.45 1.13 ) 

//outlet mid 1
		 ( 31.0 15.15 1.46 ) 
		 ( 31.0 15.3 1.46 ) 
		 ( 31.0 15.45 1.46 ) 

		 ( 31.0 15.15 1.63 ) 
		 ( 31.0 15.3 1.63 ) 
		 ( 31.0 15.45 1.63 )  

//outlet mid 2
		 ( 31.0 15.15 1.97 ) 
		 ( 31.0 15.3 1.97 ) 
		 ( 31.0 15.45 1.97 ) 

		 ( 31.0 15.15 2.13 ) 
		 ( 31.0 15.3 2.13 ) 
		 ( 31.0 15.45 2.13 ) 
 
//outlet top
		 ( 31.0 15.15 2.47 ) 
		 ( 31.0 15.3 2.47 ) 
		 ( 31.0 15.45 2.47 ) 

		 ( 31.0 15.15 2.63 ) 
		 ( 31.0 15.3 2.63 ) 
		 ( 31.0 15.45 2.63 )
       









		
		
		
		
		
		
		
		
		
		
		
				
//inlet bottom
		 ( 30.200000000000003 14.55 0.97 ) 
		 ( 30.200000000000003 14.7 0.97 ) 
		 ( 30.200000000000003 14.85 0.97 ) 

		 ( 30.200000000000003 14.55 1.13 ) 
		 ( 30.200000000000003 14.7 1.13 ) 
		 ( 30.200000000000003 14.85 1.13 ) 

//inlet mid 1
		 ( 30.200000000000003 14.55 1.46 ) 
		 ( 30.200000000000003 14.7 1.46 ) 
		 ( 30.200000000000003 14.85 1.46 ) 

		 ( 30.200000000000003 14.55 1.63 ) 
		 ( 30.200000000000003 14.7 1.63 ) 
		 ( 30.200000000000003 14.85 1.63 )  

//inlet mid 2
		 ( 30.200000000000003 14.55 1.97 ) 
		 ( 30.200000000000003 14.7 1.97 ) 
		 ( 30.200000000000003 14.85 1.97 ) 

		 ( 30.200000000000003 14.55 2.13 ) 
		 ( 30.200000000000003 14.7 2.13 ) 
		 ( 30.200000000000003 14.85 2.13 ) 
 
//inlet top
		 ( 30.200000000000003 14.55 2.47 ) 
		 ( 30.200000000000003 14.7 2.47 ) 
		 ( 30.200000000000003 14.85 2.47 ) 

		 ( 30.200000000000003 14.55 2.63 ) 
		 ( 30.200000000000003 14.7 2.63 ) 
		 ( 30.200000000000003 14.85 2.63 ) 


//outlet bottom
		 ( 31.0 14.55 0.97 ) 
		 ( 31.0 14.7 0.97 ) 
		 ( 31.0 14.85 0.97 ) 

		 ( 31.0 14.55 1.13 ) 
		 ( 31.0 14.7 1.13 ) 
		 ( 31.0 14.85 1.13 ) 

//outlet mid 1
		 ( 31.0 14.55 1.46 ) 
		 ( 31.0 14.7 1.46 ) 
		 ( 31.0 14.85 1.46 ) 

		 ( 31.0 14.55 1.63 ) 
		 ( 31.0 14.7 1.63 ) 
		 ( 31.0 14.85 1.63 )  

//outlet mid 2
		 ( 31.0 14.55 1.97 ) 
		 ( 31.0 14.7 1.97 ) 
		 ( 31.0 14.85 1.97 ) 

		 ( 31.0 14.55 2.13 ) 
		 ( 31.0 14.7 2.13 ) 
		 ( 31.0 14.85 2.13 ) 
 
//outlet top
		 ( 31.0 14.55 2.47 ) 
		 ( 31.0 14.7 2.47 ) 
		 ( 31.0 14.85 2.47 ) 

		 ( 31.0 14.55 2.63 ) 
		 ( 31.0 14.7 2.63 ) 
		 ( 31.0 14.85 2.63 )
       











		
		
		
		
		
		
		
		
		
		
		
				
//inlet bottom
		 (33.6 13.35 0.97) 
		 (33.6 13.5 0.97) 
		 (33.6 13.65 0.97) 

		 (33.6 13.35 1.13) 
		 (33.6 13.5 1.13) 
		 (33.6 13.65 1.13) 

//inlet mid 1
		 (33.6 13.35 1.46)  
		 (33.6 13.5 1.46) 
		 (33.6 13.65 1.46) 

		 (33.6 13.35 1.63) 
		 (33.6 13.5 1.63) 
		 (33.6 13.65 1.63) 

//inlet mid 2
		 (33.6 13.35 1.97)  
		 (33.6 13.5 1.97)  
		 (33.6 13.65 1.97)  

		 (33.6 13.35 2.13) 
		 (33.6 13.5 2.13) 
		 (33.6 13.65 2.13) 
 
//inlet top
		 (33.6 13.35 2.47)  
		 (33.6 13.5 2.47)  
		 (33.6 13.65 2.47) 

		 (33.6 13.35 2.63) 
		 (33.6 13.5 2.63) 
		 (33.6 13.65 2.63) 


//outlet bottom
		 (32.800000000000004 13.35 0.97) 
		 (32.800000000000004 13.5 0.97) 
		 (32.800000000000004 13.65 0.97) 

		 (32.800000000000004 13.35 1.13) 
		 (32.800000000000004 13.5 1.13) 
		 (32.800000000000004 13.65 1.13) 

//outlet mid 1
		 (32.800000000000004 13.35 1.46) 
		 (32.800000000000004 13.5 1.46) 
		 (32.800000000000004 13.65 1.46) 

		 (32.800000000000004 13.35 1.63) 
		 (32.800000000000004 13.5 1.63) 
		 (32.800000000000004 13.65 1.63)  

//outlet mid 2
		 (32.800000000000004 13.35 1.97) 
		 (32.800000000000004 13.5 1.97) 
		 (32.800000000000004 13.65 1.97) 

		 (32.800000000000004 13.35 2.13) 
		 (32.800000000000004 13.5 2.13) 
		 (32.800000000000004 13.65 2.13) 
 
//outlet top
		 (32.800000000000004 13.35 2.47) 
		 (32.800000000000004 13.5 2.47) 
		 (32.800000000000004 13.65 2.47) 

		 (32.800000000000004 13.35 2.63) 
		 (32.800000000000004 13.5 2.63) 
		 (32.800000000000004 13.65 2.63)









		
		
		
		
		
		
		
		
		
		
		
				
//inlet bottom
		 (33.6 13.95 0.97) 
		 (33.6 14.1 0.97) 
		 (33.6 14.25 0.97) 

		 (33.6 13.95 1.13) 
		 (33.6 14.1 1.13) 
		 (33.6 14.25 1.13) 

//inlet mid 1
		 (33.6 13.95 1.46)  
		 (33.6 14.1 1.46) 
		 (33.6 14.25 1.46) 

		 (33.6 13.95 1.63) 
		 (33.6 14.1 1.63) 
		 (33.6 14.25 1.63) 

//inlet mid 2
		 (33.6 13.95 1.97)  
		 (33.6 14.1 1.97)  
		 (33.6 14.25 1.97)  

		 (33.6 13.95 2.13) 
		 (33.6 14.1 2.13) 
		 (33.6 14.25 2.13) 
 
//inlet top
		 (33.6 13.95 2.47)  
		 (33.6 14.1 2.47)  
		 (33.6 14.25 2.47) 

		 (33.6 13.95 2.63) 
		 (33.6 14.1 2.63) 
		 (33.6 14.25 2.63) 


//outlet bottom
		 (32.800000000000004 13.95 0.97) 
		 (32.800000000000004 14.1 0.97) 
		 (32.800000000000004 14.25 0.97) 

		 (32.800000000000004 13.95 1.13) 
		 (32.800000000000004 14.1 1.13) 
		 (32.800000000000004 14.25 1.13) 

//outlet mid 1
		 (32.800000000000004 13.95 1.46) 
		 (32.800000000000004 14.1 1.46) 
		 (32.800000000000004 14.25 1.46) 

		 (32.800000000000004 13.95 1.63) 
		 (32.800000000000004 14.1 1.63) 
		 (32.800000000000004 14.25 1.63)  

//outlet mid 2
		 (32.800000000000004 13.95 1.97) 
		 (32.800000000000004 14.1 1.97) 
		 (32.800000000000004 14.25 1.97) 

		 (32.800000000000004 13.95 2.13) 
		 (32.800000000000004 14.1 2.13) 
		 (32.800000000000004 14.25 2.13) 
 
//outlet top
		 (32.800000000000004 13.95 2.47) 
		 (32.800000000000004 14.1 2.47) 
		 (32.800000000000004 14.25 2.47) 

		 (32.800000000000004 13.95 2.63) 
		 (32.800000000000004 14.1 2.63) 
		 (32.800000000000004 14.25 2.63)









		
		
		
		
		
		
		
		
		
		
		
				
//inlet bottom
		 (33.6 14.55 0.97) 
		 (33.6 14.7 0.97) 
		 (33.6 14.85 0.97) 

		 (33.6 14.55 1.13) 
		 (33.6 14.7 1.13) 
		 (33.6 14.85 1.13) 

//inlet mid 1
		 (33.6 14.55 1.46)  
		 (33.6 14.7 1.46) 
		 (33.6 14.85 1.46) 

		 (33.6 14.55 1.63) 
		 (33.6 14.7 1.63) 
		 (33.6 14.85 1.63) 

//inlet mid 2
		 (33.6 14.55 1.97)  
		 (33.6 14.7 1.97)  
		 (33.6 14.85 1.97)  

		 (33.6 14.55 2.13) 
		 (33.6 14.7 2.13) 
		 (33.6 14.85 2.13) 
 
//inlet top
		 (33.6 14.55 2.47)  
		 (33.6 14.7 2.47)  
		 (33.6 14.85 2.47) 

		 (33.6 14.55 2.63) 
		 (33.6 14.7 2.63) 
		 (33.6 14.85 2.63) 


//outlet bottom
		 (32.800000000000004 14.55 0.97) 
		 (32.800000000000004 14.7 0.97) 
		 (32.800000000000004 14.85 0.97) 

		 (32.800000000000004 14.55 1.13) 
		 (32.800000000000004 14.7 1.13) 
		 (32.800000000000004 14.85 1.13) 

//outlet mid 1
		 (32.800000000000004 14.55 1.46) 
		 (32.800000000000004 14.7 1.46) 
		 (32.800000000000004 14.85 1.46) 

		 (32.800000000000004 14.55 1.63) 
		 (32.800000000000004 14.7 1.63) 
		 (32.800000000000004 14.85 1.63)  

//outlet mid 2
		 (32.800000000000004 14.55 1.97) 
		 (32.800000000000004 14.7 1.97) 
		 (32.800000000000004 14.85 1.97) 

		 (32.800000000000004 14.55 2.13) 
		 (32.800000000000004 14.7 2.13) 
		 (32.800000000000004 14.85 2.13) 
 
//outlet top
		 (32.800000000000004 14.55 2.47) 
		 (32.800000000000004 14.7 2.47) 
		 (32.800000000000004 14.85 2.47) 

		 (32.800000000000004 14.55 2.63) 
		 (32.800000000000004 14.7 2.63) 
		 (32.800000000000004 14.85 2.63)









		
		
		
		
		
		
		
		
		
		
		
				
//inlet bottom
		 (33.6 15.15 0.97) 
		 (33.6 15.3 0.97) 
		 (33.6 15.45 0.97) 

		 (33.6 15.15 1.13) 
		 (33.6 15.3 1.13) 
		 (33.6 15.45 1.13) 

//inlet mid 1
		 (33.6 15.15 1.46)  
		 (33.6 15.3 1.46) 
		 (33.6 15.45 1.46) 

		 (33.6 15.15 1.63) 
		 (33.6 15.3 1.63) 
		 (33.6 15.45 1.63) 

//inlet mid 2
		 (33.6 15.15 1.97)  
		 (33.6 15.3 1.97)  
		 (33.6 15.45 1.97)  

		 (33.6 15.15 2.13) 
		 (33.6 15.3 2.13) 
		 (33.6 15.45 2.13) 
 
//inlet top
		 (33.6 15.15 2.47)  
		 (33.6 15.3 2.47)  
		 (33.6 15.45 2.47) 

		 (33.6 15.15 2.63) 
		 (33.6 15.3 2.63) 
		 (33.6 15.45 2.63) 


//outlet bottom
		 (32.800000000000004 15.15 0.97) 
		 (32.800000000000004 15.3 0.97) 
		 (32.800000000000004 15.45 0.97) 

		 (32.800000000000004 15.15 1.13) 
		 (32.800000000000004 15.3 1.13) 
		 (32.800000000000004 15.45 1.13) 

//outlet mid 1
		 (32.800000000000004 15.15 1.46) 
		 (32.800000000000004 15.3 1.46) 
		 (32.800000000000004 15.45 1.46) 

		 (32.800000000000004 15.15 1.63) 
		 (32.800000000000004 15.3 1.63) 
		 (32.800000000000004 15.45 1.63)  

//outlet mid 2
		 (32.800000000000004 15.15 1.97) 
		 (32.800000000000004 15.3 1.97) 
		 (32.800000000000004 15.45 1.97) 

		 (32.800000000000004 15.15 2.13) 
		 (32.800000000000004 15.3 2.13) 
		 (32.800000000000004 15.45 2.13) 
 
//outlet top
		 (32.800000000000004 15.15 2.47) 
		 (32.800000000000004 15.3 2.47) 
		 (32.800000000000004 15.45 2.47) 

		 (32.800000000000004 15.15 2.63) 
		 (32.800000000000004 15.3 2.63) 
		 (32.800000000000004 15.45 2.63)







		
		
		
		
		
		
		
		
		
		
		
				
//inlet bottom
		 ( 35.0 13.35 0.97 ) 
		 ( 35.0 13.5 0.97 ) 
		 ( 35.0 13.65 0.97 ) 

		 ( 35.0 13.35 1.13 ) 
		 ( 35.0 13.5 1.13 ) 
		 ( 35.0 13.65 1.13 ) 

//inlet mid 1
		 ( 35.0 13.35 1.46 ) 
		 ( 35.0 13.5 1.46 ) 
		 ( 35.0 13.65 1.46 ) 

		 ( 35.0 13.35 1.63 ) 
		 ( 35.0 13.5 1.63 ) 
		 ( 35.0 13.65 1.63 )  

//inlet mid 2
		 ( 35.0 13.35 1.97 ) 
		 ( 35.0 13.5 1.97 ) 
		 ( 35.0 13.65 1.97 ) 

		 ( 35.0 13.35 2.13 ) 
		 ( 35.0 13.5 2.13 ) 
		 ( 35.0 13.65 2.13 ) 
 
//inlet top
		 ( 35.0 13.35 2.47 ) 
		 ( 35.0 13.5 2.47 ) 
		 ( 35.0 13.65 2.47 ) 

		 ( 35.0 13.35 2.63 ) 
		 ( 35.0 13.5 2.63 ) 
		 ( 35.0 13.65 2.63 ) 


//outlet bottom
		 ( 35.800000000000004 13.35 0.97 ) 
		 ( 35.800000000000004 13.5 0.97 ) 
		 ( 35.800000000000004 13.65 0.97 ) 

		 ( 35.800000000000004 13.35 1.13 ) 
		 ( 35.800000000000004 13.5 1.13 ) 
		 ( 35.800000000000004 13.65 1.13 ) 

//outlet mid 1
		 ( 35.800000000000004 13.35 1.46 ) 
		 ( 35.800000000000004 13.5 1.46 ) 
		 ( 35.800000000000004 13.65 1.46 ) 

		 ( 35.800000000000004 13.35 1.63 ) 
		 ( 35.800000000000004 13.5 1.63 ) 
		 ( 35.800000000000004 13.65 1.63 )  

//outlet mid 2
		 ( 35.800000000000004 13.35 1.97 ) 
		 ( 35.800000000000004 13.5 1.97 ) 
		 ( 35.800000000000004 13.65 1.97 ) 

		 ( 35.800000000000004 13.35 2.13 ) 
		 ( 35.800000000000004 13.5 2.13 ) 
		 ( 35.800000000000004 13.65 2.13 ) 
 
//outlet top
		 ( 35.800000000000004 13.35 2.47 ) 
		 ( 35.800000000000004 13.5 2.47 ) 
		 ( 35.800000000000004 13.65 2.47 ) 

		 ( 35.800000000000004 13.35 2.63 ) 
		 ( 35.800000000000004 13.5 2.63 ) 
		 ( 35.800000000000004 13.65 2.63 )
       









		
		
		
		
		
		
		
		
		
		
		
				
//inlet bottom
		 ( 35.0 13.95 0.97 ) 
		 ( 35.0 14.1 0.97 ) 
		 ( 35.0 14.25 0.97 ) 

		 ( 35.0 13.95 1.13 ) 
		 ( 35.0 14.1 1.13 ) 
		 ( 35.0 14.25 1.13 ) 

//inlet mid 1
		 ( 35.0 13.95 1.46 ) 
		 ( 35.0 14.1 1.46 ) 
		 ( 35.0 14.25 1.46 ) 

		 ( 35.0 13.95 1.63 ) 
		 ( 35.0 14.1 1.63 ) 
		 ( 35.0 14.25 1.63 )  

//inlet mid 2
		 ( 35.0 13.95 1.97 ) 
		 ( 35.0 14.1 1.97 ) 
		 ( 35.0 14.25 1.97 ) 

		 ( 35.0 13.95 2.13 ) 
		 ( 35.0 14.1 2.13 ) 
		 ( 35.0 14.25 2.13 ) 
 
//inlet top
		 ( 35.0 13.95 2.47 ) 
		 ( 35.0 14.1 2.47 ) 
		 ( 35.0 14.25 2.47 ) 

		 ( 35.0 13.95 2.63 ) 
		 ( 35.0 14.1 2.63 ) 
		 ( 35.0 14.25 2.63 ) 


//outlet bottom
		 ( 35.800000000000004 13.95 0.97 ) 
		 ( 35.800000000000004 14.1 0.97 ) 
		 ( 35.800000000000004 14.25 0.97 ) 

		 ( 35.800000000000004 13.95 1.13 ) 
		 ( 35.800000000000004 14.1 1.13 ) 
		 ( 35.800000000000004 14.25 1.13 ) 

//outlet mid 1
		 ( 35.800000000000004 13.95 1.46 ) 
		 ( 35.800000000000004 14.1 1.46 ) 
		 ( 35.800000000000004 14.25 1.46 ) 

		 ( 35.800000000000004 13.95 1.63 ) 
		 ( 35.800000000000004 14.1 1.63 ) 
		 ( 35.800000000000004 14.25 1.63 )  

//outlet mid 2
		 ( 35.800000000000004 13.95 1.97 ) 
		 ( 35.800000000000004 14.1 1.97 ) 
		 ( 35.800000000000004 14.25 1.97 ) 

		 ( 35.800000000000004 13.95 2.13 ) 
		 ( 35.800000000000004 14.1 2.13 ) 
		 ( 35.800000000000004 14.25 2.13 ) 
 
//outlet top
		 ( 35.800000000000004 13.95 2.47 ) 
		 ( 35.800000000000004 14.1 2.47 ) 
		 ( 35.800000000000004 14.25 2.47 ) 

		 ( 35.800000000000004 13.95 2.63 ) 
		 ( 35.800000000000004 14.1 2.63 ) 
		 ( 35.800000000000004 14.25 2.63 )
       









		
		
		
		
		
		
		
		
		
		
		
				
//inlet bottom
		 ( 35.0 15.15 0.97 ) 
		 ( 35.0 15.3 0.97 ) 
		 ( 35.0 15.45 0.97 ) 

		 ( 35.0 15.15 1.13 ) 
		 ( 35.0 15.3 1.13 ) 
		 ( 35.0 15.45 1.13 ) 

//inlet mid 1
		 ( 35.0 15.15 1.46 ) 
		 ( 35.0 15.3 1.46 ) 
		 ( 35.0 15.45 1.46 ) 

		 ( 35.0 15.15 1.63 ) 
		 ( 35.0 15.3 1.63 ) 
		 ( 35.0 15.45 1.63 )  

//inlet mid 2
		 ( 35.0 15.15 1.97 ) 
		 ( 35.0 15.3 1.97 ) 
		 ( 35.0 15.45 1.97 ) 

		 ( 35.0 15.15 2.13 ) 
		 ( 35.0 15.3 2.13 ) 
		 ( 35.0 15.45 2.13 ) 
 
//inlet top
		 ( 35.0 15.15 2.47 ) 
		 ( 35.0 15.3 2.47 ) 
		 ( 35.0 15.45 2.47 ) 

		 ( 35.0 15.15 2.63 ) 
		 ( 35.0 15.3 2.63 ) 
		 ( 35.0 15.45 2.63 ) 


//outlet bottom
		 ( 35.800000000000004 15.15 0.97 ) 
		 ( 35.800000000000004 15.3 0.97 ) 
		 ( 35.800000000000004 15.45 0.97 ) 

		 ( 35.800000000000004 15.15 1.13 ) 
		 ( 35.800000000000004 15.3 1.13 ) 
		 ( 35.800000000000004 15.45 1.13 ) 

//outlet mid 1
		 ( 35.800000000000004 15.15 1.46 ) 
		 ( 35.800000000000004 15.3 1.46 ) 
		 ( 35.800000000000004 15.45 1.46 ) 

		 ( 35.800000000000004 15.15 1.63 ) 
		 ( 35.800000000000004 15.3 1.63 ) 
		 ( 35.800000000000004 15.45 1.63 )  

//outlet mid 2
		 ( 35.800000000000004 15.15 1.97 ) 
		 ( 35.800000000000004 15.3 1.97 ) 
		 ( 35.800000000000004 15.45 1.97 ) 

		 ( 35.800000000000004 15.15 2.13 ) 
		 ( 35.800000000000004 15.3 2.13 ) 
		 ( 35.800000000000004 15.45 2.13 ) 
 
//outlet top
		 ( 35.800000000000004 15.15 2.47 ) 
		 ( 35.800000000000004 15.3 2.47 ) 
		 ( 35.800000000000004 15.45 2.47 ) 

		 ( 35.800000000000004 15.15 2.63 ) 
		 ( 35.800000000000004 15.3 2.63 ) 
		 ( 35.800000000000004 15.45 2.63 )
       









		
		
		
		
		
		
		
		
		
		
		
				
//inlet bottom
		 ( 35.0 14.55 0.97 ) 
		 ( 35.0 14.7 0.97 ) 
		 ( 35.0 14.85 0.97 ) 

		 ( 35.0 14.55 1.13 ) 
		 ( 35.0 14.7 1.13 ) 
		 ( 35.0 14.85 1.13 ) 

//inlet mid 1
		 ( 35.0 14.55 1.46 ) 
		 ( 35.0 14.7 1.46 ) 
		 ( 35.0 14.85 1.46 ) 

		 ( 35.0 14.55 1.63 ) 
		 ( 35.0 14.7 1.63 ) 
		 ( 35.0 14.85 1.63 )  

//inlet mid 2
		 ( 35.0 14.55 1.97 ) 
		 ( 35.0 14.7 1.97 ) 
		 ( 35.0 14.85 1.97 ) 

		 ( 35.0 14.55 2.13 ) 
		 ( 35.0 14.7 2.13 ) 
		 ( 35.0 14.85 2.13 ) 
 
//inlet top
		 ( 35.0 14.55 2.47 ) 
		 ( 35.0 14.7 2.47 ) 
		 ( 35.0 14.85 2.47 ) 

		 ( 35.0 14.55 2.63 ) 
		 ( 35.0 14.7 2.63 ) 
		 ( 35.0 14.85 2.63 ) 


//outlet bottom
		 ( 35.800000000000004 14.55 0.97 ) 
		 ( 35.800000000000004 14.7 0.97 ) 
		 ( 35.800000000000004 14.85 0.97 ) 

		 ( 35.800000000000004 14.55 1.13 ) 
		 ( 35.800000000000004 14.7 1.13 ) 
		 ( 35.800000000000004 14.85 1.13 ) 

//outlet mid 1
		 ( 35.800000000000004 14.55 1.46 ) 
		 ( 35.800000000000004 14.7 1.46 ) 
		 ( 35.800000000000004 14.85 1.46 ) 

		 ( 35.800000000000004 14.55 1.63 ) 
		 ( 35.800000000000004 14.7 1.63 ) 
		 ( 35.800000000000004 14.85 1.63 )  

//outlet mid 2
		 ( 35.800000000000004 14.55 1.97 ) 
		 ( 35.800000000000004 14.7 1.97 ) 
		 ( 35.800000000000004 14.85 1.97 ) 

		 ( 35.800000000000004 14.55 2.13 ) 
		 ( 35.800000000000004 14.7 2.13 ) 
		 ( 35.800000000000004 14.85 2.13 ) 
 
//outlet top
		 ( 35.800000000000004 14.55 2.47 ) 
		 ( 35.800000000000004 14.7 2.47 ) 
		 ( 35.800000000000004 14.85 2.47 ) 

		 ( 35.800000000000004 14.55 2.63 ) 
		 ( 35.800000000000004 14.7 2.63 ) 
		 ( 35.800000000000004 14.85 2.63 )
       




);

// * * * * * * * * * * * * * * * * * * * * * * * * * * * * * * * * * * * * //