/*--------------------------------*- C++ -*----------------------------------*\
| =========                 |                                                 |
| \\      /  F ield         | OpenFOAM: The Open Source CFD Toolbox           |
|  \\    /   O peration     | Version:  2.3.1                                 |
|   \\  /    A nd           | Web:      www.OpenFOAM.org                      |
|    \\/     M anipulation  |                                                 |
\*---------------------------------------------------------------------------*/
FoamFile
{
    version     2.0;
    format      ascii;
    class       polyBoundaryMesh;
    location    "constant/polyMesh";
    object      boundary;
}
// * * * * * * * * * * * * * * * * * * * * * * * * * * * * * * * * * * * * * //

78
(
    floor
    {
        type            wall;
        inGroups        1(wall);
        nFaces          2080;
        startFace       114430;
    }
    ceiling
    {
        type            wall;
        inGroups        1(wall);
        nFaces          2080;
        startFace       116510;
    }
    fixedWalls
    {
        type            wall;
        inGroups        1(wall);
        nFaces          4074;
        startFace       118590;
    }
    rack1B4CBD4A994E6797F70F5EF1F5863DB2_fixedWall
    {
        type            wall;
        inGroups        
2
(
rack1B4CBD4A994E6797F70F5EF1F5863DB2
wall
)
;
        nFaces          64;
        startFace       122664;
    }
    rack1B4CBD4A994E6797F70F5EF1F5863DB2_inlet
    {
        type            patch;
        inGroups        1(rack1B4CBD4A994E6797F70F5EF1F5863DB2);
        nFaces          30;
        startFace       122728;
    }
    rack1B4CBD4A994E6797F70F5EF1F5863DB2_outlet
    {
        type            patch;
        inGroups        1(rack1B4CBD4A994E6797F70F5EF1F5863DB2);
        nFaces          30;
        startFace       122758;
    }
    rackFA1BFEC6E1E22133740F019445868403_fixedWall
    {
        type            wall;
        inGroups        
2
(
rackFA1BFEC6E1E22133740F019445868403
wall
)
;
        nFaces          24;
        startFace       122788;
    }
    rackFA1BFEC6E1E22133740F019445868403_inlet
    {
        type            patch;
        inGroups        1(rackFA1BFEC6E1E22133740F019445868403);
        nFaces          30;
        startFace       122812;
    }
    rackFA1BFEC6E1E22133740F019445868403_outlet
    {
        type            patch;
        inGroups        1(rackFA1BFEC6E1E22133740F019445868403);
        nFaces          30;
        startFace       122842;
    }
    rack927D2E6888FD177A981C0A7DD98F9854_fixedWall
    {
        type            wall;
        inGroups        
2
(
rack927D2E6888FD177A981C0A7DD98F9854
wall
)
;
        nFaces          24;
        startFace       122872;
    }
    rack927D2E6888FD177A981C0A7DD98F9854_inlet
    {
        type            patch;
        inGroups        1(rack927D2E6888FD177A981C0A7DD98F9854);
        nFaces          30;
        startFace       122896;
    }
    rack927D2E6888FD177A981C0A7DD98F9854_outlet
    {
        type            patch;
        inGroups        1(rack927D2E6888FD177A981C0A7DD98F9854);
        nFaces          30;
        startFace       122926;
    }
    rackC65181F2388B717A2DFA3CA4F31EBB92_fixedWall
    {
        type            wall;
        inGroups        
2
(
rackC65181F2388B717A2DFA3CA4F31EBB92
wall
)
;
        nFaces          64;
        startFace       122956;
    }
    rackC65181F2388B717A2DFA3CA4F31EBB92_inlet
    {
        type            patch;
        inGroups        1(rackC65181F2388B717A2DFA3CA4F31EBB92);
        nFaces          30;
        startFace       123020;
    }
    rackC65181F2388B717A2DFA3CA4F31EBB92_outlet
    {
        type            patch;
        inGroups        1(rackC65181F2388B717A2DFA3CA4F31EBB92);
        nFaces          30;
        startFace       123050;
    }
    rack4A95D65ACB30A998A736CBDCEE88E685_fixedWall
    {
        type            wall;
        inGroups        
2
(
rack4A95D65ACB30A998A736CBDCEE88E685
wall
)
;
        nFaces          64;
        startFace       123080;
    }
    rack4A95D65ACB30A998A736CBDCEE88E685_outlet
    {
        type            patch;
        inGroups        1(rack4A95D65ACB30A998A736CBDCEE88E685);
        nFaces          30;
        startFace       123144;
    }
    rack4A95D65ACB30A998A736CBDCEE88E685_inlet
    {
        type            patch;
        inGroups        1(rack4A95D65ACB30A998A736CBDCEE88E685);
        nFaces          30;
        startFace       123174;
    }
    rack854D7BA836DCDC8D61AD830338297BA9_fixedWall
    {
        type            wall;
        inGroups        
2
(
rack854D7BA836DCDC8D61AD830338297BA9
wall
)
;
        nFaces          24;
        startFace       123204;
    }
    rack854D7BA836DCDC8D61AD830338297BA9_outlet
    {
        type            patch;
        inGroups        1(rack854D7BA836DCDC8D61AD830338297BA9);
        nFaces          30;
        startFace       123228;
    }
    rack854D7BA836DCDC8D61AD830338297BA9_inlet
    {
        type            patch;
        inGroups        1(rack854D7BA836DCDC8D61AD830338297BA9);
        nFaces          30;
        startFace       123258;
    }
    rack0E1B92A4DE590895AB323DD8D1E9F921_fixedWall
    {
        type            wall;
        inGroups        
2
(
rack0E1B92A4DE590895AB323DD8D1E9F921
wall
)
;
        nFaces          64;
        startFace       123288;
    }
    rack0E1B92A4DE590895AB323DD8D1E9F921_outlet
    {
        type            patch;
        inGroups        1(rack0E1B92A4DE590895AB323DD8D1E9F921);
        nFaces          30;
        startFace       123352;
    }
    rack0E1B92A4DE590895AB323DD8D1E9F921_inlet
    {
        type            patch;
        inGroups        1(rack0E1B92A4DE590895AB323DD8D1E9F921);
        nFaces          30;
        startFace       123382;
    }
    rackEA7E369EEC67CD4825F99F786002F8BB_fixedWall
    {
        type            wall;
        inGroups        
2
(
rackEA7E369EEC67CD4825F99F786002F8BB
wall
)
;
        nFaces          24;
        startFace       123412;
    }
    rackEA7E369EEC67CD4825F99F786002F8BB_outlet
    {
        type            patch;
        inGroups        1(rackEA7E369EEC67CD4825F99F786002F8BB);
        nFaces          30;
        startFace       123436;
    }
    rackEA7E369EEC67CD4825F99F786002F8BB_inlet
    {
        type            patch;
        inGroups        1(rackEA7E369EEC67CD4825F99F786002F8BB);
        nFaces          30;
        startFace       123466;
    }
    rackE1B88BE09859F2B90B67530927011F46_fixedWall
    {
        type            wall;
        inGroups        
2
(
rackE1B88BE09859F2B90B67530927011F46
wall
)
;
        nFaces          64;
        startFace       123496;
    }
    rackE1B88BE09859F2B90B67530927011F46_inlet
    {
        type            patch;
        inGroups        1(rackE1B88BE09859F2B90B67530927011F46);
        nFaces          30;
        startFace       123560;
    }
    rackE1B88BE09859F2B90B67530927011F46_outlet
    {
        type            patch;
        inGroups        1(rackE1B88BE09859F2B90B67530927011F46);
        nFaces          30;
        startFace       123590;
    }
    rack6F2FB4401216FB0BE5B3E9FA249DE9D5_fixedWall
    {
        type            wall;
        inGroups        
2
(
rack6F2FB4401216FB0BE5B3E9FA249DE9D5
wall
)
;
        nFaces          24;
        startFace       123620;
    }
    rack6F2FB4401216FB0BE5B3E9FA249DE9D5_inlet
    {
        type            patch;
        inGroups        1(rack6F2FB4401216FB0BE5B3E9FA249DE9D5);
        nFaces          30;
        startFace       123644;
    }
    rack6F2FB4401216FB0BE5B3E9FA249DE9D5_outlet
    {
        type            patch;
        inGroups        1(rack6F2FB4401216FB0BE5B3E9FA249DE9D5);
        nFaces          30;
        startFace       123674;
    }
    rackCB8BB049ED5D9C7579939A35E238AE7C_fixedWall
    {
        type            wall;
        inGroups        
2
(
rackCB8BB049ED5D9C7579939A35E238AE7C
wall
)
;
        nFaces          24;
        startFace       123704;
    }
    rackCB8BB049ED5D9C7579939A35E238AE7C_inlet
    {
        type            patch;
        inGroups        1(rackCB8BB049ED5D9C7579939A35E238AE7C);
        nFaces          30;
        startFace       123728;
    }
    rackCB8BB049ED5D9C7579939A35E238AE7C_outlet
    {
        type            patch;
        inGroups        1(rackCB8BB049ED5D9C7579939A35E238AE7C);
        nFaces          30;
        startFace       123758;
    }
    rack7CE29452499711B0CDDF74AF35D57FA0_fixedWall
    {
        type            wall;
        inGroups        
2
(
rack7CE29452499711B0CDDF74AF35D57FA0
wall
)
;
        nFaces          64;
        startFace       123788;
    }
    rack7CE29452499711B0CDDF74AF35D57FA0_inlet
    {
        type            patch;
        inGroups        1(rack7CE29452499711B0CDDF74AF35D57FA0);
        nFaces          30;
        startFace       123852;
    }
    rack7CE29452499711B0CDDF74AF35D57FA0_outlet
    {
        type            patch;
        inGroups        1(rack7CE29452499711B0CDDF74AF35D57FA0);
        nFaces          30;
        startFace       123882;
    }
    rackCFEA7F02580F13637EC4158DF376E6A1_fixedWall
    {
        type            wall;
        inGroups        
2
(
rackCFEA7F02580F13637EC4158DF376E6A1
wall
)
;
        nFaces          64;
        startFace       123912;
    }
    rackCFEA7F02580F13637EC4158DF376E6A1_outlet
    {
        type            patch;
        inGroups        1(rackCFEA7F02580F13637EC4158DF376E6A1);
        nFaces          30;
        startFace       123976;
    }
    rackCFEA7F02580F13637EC4158DF376E6A1_inlet
    {
        type            patch;
        inGroups        1(rackCFEA7F02580F13637EC4158DF376E6A1);
        nFaces          30;
        startFace       124006;
    }
    rackEDC8F6013BD80A7E069B3B7DBF87465F_fixedWall
    {
        type            wall;
        inGroups        
2
(
rackEDC8F6013BD80A7E069B3B7DBF87465F
wall
)
;
        nFaces          24;
        startFace       124036;
    }
    rackEDC8F6013BD80A7E069B3B7DBF87465F_outlet
    {
        type            patch;
        inGroups        1(rackEDC8F6013BD80A7E069B3B7DBF87465F);
        nFaces          30;
        startFace       124060;
    }
    rackEDC8F6013BD80A7E069B3B7DBF87465F_inlet
    {
        type            patch;
        inGroups        1(rackEDC8F6013BD80A7E069B3B7DBF87465F);
        nFaces          30;
        startFace       124090;
    }
    rack36DD04A52BFE5C6B041452059D458836_fixedWall
    {
        type            wall;
        inGroups        
2
(
rack36DD04A52BFE5C6B041452059D458836
wall
)
;
        nFaces          64;
        startFace       124120;
    }
    rack36DD04A52BFE5C6B041452059D458836_outlet
    {
        type            patch;
        inGroups        1(rack36DD04A52BFE5C6B041452059D458836);
        nFaces          30;
        startFace       124184;
    }
    rack36DD04A52BFE5C6B041452059D458836_inlet
    {
        type            patch;
        inGroups        1(rack36DD04A52BFE5C6B041452059D458836);
        nFaces          30;
        startFace       124214;
    }
    rackD902EEF5E6F996BB25E50FDE8FD1F62B_fixedWall
    {
        type            wall;
        inGroups        
2
(
rackD902EEF5E6F996BB25E50FDE8FD1F62B
wall
)
;
        nFaces          24;
        startFace       124244;
    }
    rackD902EEF5E6F996BB25E50FDE8FD1F62B_outlet
    {
        type            patch;
        inGroups        1(rackD902EEF5E6F996BB25E50FDE8FD1F62B);
        nFaces          30;
        startFace       124268;
    }
    rackD902EEF5E6F996BB25E50FDE8FD1F62B_inlet
    {
        type            patch;
        inGroups        1(rackD902EEF5E6F996BB25E50FDE8FD1F62B);
        nFaces          30;
        startFace       124298;
    }
    acuF9CB05DA6465C302727AC2126F3ADC50_inlet
    {
        type            patch;
        inGroups        1(acuF9CB05DA6465C302727AC2126F3ADC50);
        nFaces          40;
        startFace       124328;
    }
    acuF9CB05DA6465C302727AC2126F3ADC50_outlet
    {
        type            patch;
        inGroups        1(acuF9CB05DA6465C302727AC2126F3ADC50);
        nFaces          40;
        startFace       124368;
    }
    acuF9CB05DA6465C302727AC2126F3ADC50_fixedWall
    {
        type            wall;
        inGroups        
2
(
acuF9CB05DA6465C302727AC2126F3ADC50
wall
)
;
        nFaces          280;
        startFace       124408;
    }
    acu1385ECEC5AC66642155584A8F60EB282_inlet
    {
        type            patch;
        inGroups        1(acu1385ECEC5AC66642155584A8F60EB282);
        nFaces          40;
        startFace       124688;
    }
    acu1385ECEC5AC66642155584A8F60EB282_outlet
    {
        type            patch;
        inGroups        1(acu1385ECEC5AC66642155584A8F60EB282);
        nFaces          40;
        startFace       124728;
    }
    acu1385ECEC5AC66642155584A8F60EB282_fixedWall
    {
        type            wall;
        inGroups        
2
(
acu1385ECEC5AC66642155584A8F60EB282
wall
)
;
        nFaces          280;
        startFace       124768;
    }
    acu58D3207FC902F3CCC0F4E3EA1FA1DBE2_inlet
    {
        type            patch;
        inGroups        1(acu58D3207FC902F3CCC0F4E3EA1FA1DBE2);
        nFaces          40;
        startFace       125048;
    }
    acu58D3207FC902F3CCC0F4E3EA1FA1DBE2_outlet
    {
        type            patch;
        inGroups        1(acu58D3207FC902F3CCC0F4E3EA1FA1DBE2);
        nFaces          40;
        startFace       125088;
    }
    acu58D3207FC902F3CCC0F4E3EA1FA1DBE2_fixedWall
    {
        type            wall;
        inGroups        
2
(
acu58D3207FC902F3CCC0F4E3EA1FA1DBE2
wall
)
;
        nFaces          280;
        startFace       125128;
    }
    baffleFaces_master
    {
        type            wall;
        inGroups        
2
(
wall
baffleFaces
)
;
        nFaces          1669;
        startFace       125408;
    }
    baffleFaces_slave
    {
        type            wall;
        inGroups        
2
(
wall
baffleFaces
)
;
        nFaces          1669;
        startFace       127077;
    }
    porous_half0
    {
        type            cyclic;
        inGroups        
2
(
cyclic
topPorous01
)
;
        nFaces          11;
        startFace       128746;
        matchTolerance  0.0001;
        transform       unknown;
        neighbourPatch  porous_half1;
    }
    porous_half1
    {
        type            cyclic;
        inGroups        
2
(
cyclic
topPorous01
)
;
        nFaces          11;
        startFace       128757;
        matchTolerance  0.0001;
        transform       unknown;
        neighbourPatch  porous_half0;
    }
    porous_half2
    {
        type            cyclic;
        inGroups        
2
(
cyclic
topPorous02
)
;
        nFaces          11;
        startFace       128768;
        matchTolerance  0.0001;
        transform       unknown;
        neighbourPatch  porous_half3;
    }
    porous_half3
    {
        type            cyclic;
        inGroups        
2
(
cyclic
topPorous02
)
;
        nFaces          11;
        startFace       128779;
        matchTolerance  0.0001;
        transform       unknown;
        neighbourPatch  porous_half2;
    }
    porous_half4
    {
        type            cyclic;
        inGroups        
2
(
cyclic
topPorous03
)
;
        nFaces          11;
        startFace       128790;
        matchTolerance  0.0001;
        transform       unknown;
        neighbourPatch  porous_half5;
    }
    porous_half5
    {
        type            cyclic;
        inGroups        
2
(
cyclic
topPorous03
)
;
        nFaces          11;
        startFace       128801;
        matchTolerance  0.0001;
        transform       unknown;
        neighbourPatch  porous_half4;
    }
    porous_half6
    {
        type            cyclic;
        inGroups        
2
(
cyclic
topPorous04
)
;
        nFaces          12;
        startFace       128812;
        matchTolerance  0.0001;
        transform       unknown;
        neighbourPatch  porous_half7;
    }
    porous_half7
    {
        type            cyclic;
        inGroups        
2
(
cyclic
topPorous04
)
;
        nFaces          12;
        startFace       128824;
        matchTolerance  0.0001;
        transform       unknown;
        neighbourPatch  porous_half6;
    }
    porous_half8
    {
        type            cyclic;
        inGroups        
2
(
cyclic
topPorous05
)
;
        nFaces          12;
        startFace       128836;
        matchTolerance  0.0001;
        transform       unknown;
        neighbourPatch  porous_half9;
    }
    porous_half9
    {
        type            cyclic;
        inGroups        
2
(
cyclic
topPorous05
)
;
        nFaces          12;
        startFace       128848;
        matchTolerance  0.0001;
        transform       unknown;
        neighbourPatch  porous_half8;
    }
    porous_half10
    {
        type            cyclic;
        inGroups        
2
(
cyclic
topPorous06
)
;
        nFaces          12;
        startFace       128860;
        matchTolerance  0.0001;
        transform       unknown;
        neighbourPatch  porous_half11;
    }
    porous_half11
    {
        type            cyclic;
        inGroups        
2
(
cyclic
topPorous06
)
;
        nFaces          12;
        startFace       128872;
        matchTolerance  0.0001;
        transform       unknown;
        neighbourPatch  porous_half10;
    }
    porous_half12
    {
        type            cyclic;
        inGroups        
2
(
cyclic
topPorous07
)
;
        nFaces          11;
        startFace       128884;
        matchTolerance  0.0001;
        transform       unknown;
        neighbourPatch  porous_half13;
    }
    porous_half13
    {
        type            cyclic;
        inGroups        
2
(
cyclic
topPorous07
)
;
        nFaces          11;
        startFace       128895;
        matchTolerance  0.0001;
        transform       unknown;
        neighbourPatch  porous_half12;
    }
    porous_half14
    {
        type            cyclic;
        inGroups        
2
(
cyclic
topPorous08
)
;
        nFaces          12;
        startFace       128906;
        matchTolerance  0.0001;
        transform       unknown;
        neighbourPatch  porous_half15;
    }
    porous_half15
    {
        type            cyclic;
        inGroups        
2
(
cyclic
topPorous08
)
;
        nFaces          12;
        startFace       128918;
        matchTolerance  0.0001;
        transform       unknown;
        neighbourPatch  porous_half14;
    }
)

// ************************************************************************* //
