/*--------------------------------*- C++ -*----------------------------------*\
| =========                 |                                                 |
| \\      /  F ield         | OpenFOAM: The Open Source CFD Toolbox           |
|  \\    /   O peration     | Version:  2.3.1                                 |
|   \\  /    A nd           | Web:      www.OpenFOAM.org                      |
|    \\/     M anipulation  |                                                 |
\*---------------------------------------------------------------------------*/
FoamFile
{
    version     2.0;
    format      ascii;
    class       extendedFeatureEdgeMesh;
    location    "constant/extendedFeatureEdgeMesh";
    object      room_boundary.extendedFeatureEdgeMesh;
}
// * * * * * * * * * * * * * * * * * * * * * * * * * * * * * * * * * * * * * //

// points
8((35.41 9.01 0) (35.41 13.21 0) (35.41 13.21 3.8) (35.41 9.01 3.8) (31.81 13.21 0) (31.81 13.21 3.8) (31.81 9.01 0) (31.81 9.01 3.8))
// edges

16
(
(1 2)
(4 5)
(6 7)
(2 0)
(5 1)
(7 4)
(3 6)
(0 3)
(0 1)
(3 2)
(1 4)
(2 5)
(4 6)
(5 7)
(6 0)
(7 3)
)

// concaveStart mixedStart nonFeatureStart
0 0 8
// internalStart flatStart openStart multipleStart
7 8 8 16
// normals
8((1 0 0) (-1 0 0) (0 1 0) (0 -1 0) (-1 0 0) (1 0 -0) (0 -1 0) (0 1 0))
// normal volume types

8
(
0
0
0
0
0
0
0
0
)

// normalDirections

16
(
2{1}
2{1}
2{1}
2{1}
2{1}
2{1}
2{1}
2{1}
1(1)
1(1)
1(1)
1(1)
1(1)
1(1)
1(1)
1(1)
)

// edgeNormals

16
(
2(0 3)
2(2 5)
2(4 7)
2(0 1)
2(2 3)
2(4 5)
2(6 7)
2(1 6)
1(0)
1(1)
1(2)
1(3)
1(4)
1(5)
1(6)
1(7)
)

// featurePointNormals

8
(
3(0 1 6)
3(0 3 2)
3(0 3 1)
3(6 7 1)
3(2 5 4)
3(2 5 3)
3(4 7 6)
3(4 7 5)
)

// featurePointEdges

8
(
4(3 7 8 14)
4(0 4 8 10)
4(3 0 9 11)
4(7 6 9 15)
4(1 5 10 12)
4(4 1 11 13)
4(2 6 12 14)
4(5 2 13 15)
)

// regionEdges
8(8 9 10 11 12 13 14 15)


// ************************************************************************* //
