/*--------------------------------*- C++ -*----------------------------------*\
| =========                 |                                                 |
| \\      /  F ield         | OpenFOAM: The Open Source CFD Toolbox           |
|  \\    /   O peration     | Version:  2.3.1                                 |
|   \\  /    A nd           | Web:      www.OpenFOAM.org                      |
|    \\/     M anipulation  |                                                 |
\*---------------------------------------------------------------------------*/
FoamFile
{
    version     2.0;
    format      ascii;
    class       dictionary;
    location    "system";
    object      fvOptions;
}
// * * * * * * * * * * * * * * * * * * * * * * * * * * * * * * * * * * * * * //

porosity1
{
    type            explicitPorositySource;
    active          true;
    selectionMode   cellZone;
    cellZone        porous_block_zone;

    explicitPorositySourceCoeffs
    {
        type	    fixedCoeff; //DarcyForchheimer
        fixedCoeffCoeffs  //DarcyForchheimerCoeffs
        {
	    alpha    alpha [0 0 -1 0 0 0 0] (-1.315 -1.315 -1.315); //linear term U
            beta     beta [0 -1 0 0 0 0 0] (104.43 104.43 104.43); //squared term U
            /*d   d [0 -2 0 0 0 0 0] (0 0 0); 
            f   f [0 -1 0 0 0 0 0] (9.08 9.08 9.08);*/

            coordinateSystem
            {
                type cartesian;
                origin (0 0 0);
		rho 1.225; // should be specified cuz we don't have rho in our simulation
                coordinateRotation
                {
                    type    axesRotation;
                    e1      (1 0 0);
                    e2      (0 1 0);
                }
            }
        }
    }
}


//************************************************************************* //
